592       
Geometry optimisation iteration:    28
Li   22.713142   10.763704    8.925321
Li   28.162134   16.057149    8.892009
Li   23.168764   13.627143    8.818960
Li   27.795538   18.836352    8.835805
Li   25.399497   17.380417    8.850453
Li   25.527025   11.923901    8.872607
Li   22.327070   16.495340    8.997418
Li   19.426420   17.385313    8.966639
Li   19.438131   11.115918    8.785343
Li   21.504518   19.544578    8.831472
Li   20.211657   14.303201    9.015362
Li   24.926164    0.494035    9.038429
Li   25.678035   14.711342    8.897487
Li   21.984420   12.322700   10.951051
Li   26.755174   16.473141   11.149415
Li   26.292962   18.843749   11.233650
Li   23.600496   18.315431   11.037757
Li   27.512029    1.703388   11.022218
Li   24.388308   13.115907   11.282887
Li   20.880104   17.568418   11.242666
Li   24.108970   15.754366   11.091779
Li   28.980110   18.299915   11.563516
Li   21.514239   14.935921   11.309377
Li   20.786736    9.631045   11.495307
Li   24.148616   10.387325   11.651558
Li   18.836390   15.986263   11.680051
Li   18.367567   19.324845   11.330898
Li   27.030189   12.230752   11.751382
Li   19.543306   12.768468   11.756434
Li   29.121015   14.991782   12.069572
Li   21.453852    0.269889   11.938242
Li   24.571010    0.996191   12.126069
Li   26.093360   14.697609   12.800326
Li   25.007078   17.658520   13.441931
Li   23.081405   14.277809   13.450142
Li   22.471643   16.910901   13.302802
Li   26.906601    0.130839   13.955863
Li   21.976400   11.868966   13.681401
Li   27.468068   16.843182   13.972406
Li   24.969523   12.420967   14.168757
Li   19.830193   18.051826   13.901022
Li   23.259347   19.354460   14.670531
Li   20.559818   14.708648   14.138091
Li   24.753339   15.485994   14.910477
Li   27.488647   14.180292   15.601761
Li   22.894368   13.364891   16.381057
Li   25.627428   17.802458   16.552655
Li   22.380461   16.515366   16.100174
C    10.002217    4.868483    6.861782
C     7.153666    4.869092    6.861393
C     7.863854    6.104927    6.861706
C     9.292176    6.104319    6.861793
C    27.111348   14.724912    6.981902
C    24.240103   14.733407    6.916539
C    24.956732   15.966817    6.924805
C    26.389589   15.974288    6.969402
C     7.864151    3.633142    6.862279
C     9.292451    3.632539    6.862063
C    11.419960    7.333563    6.859936
C     9.998550    7.334241    6.849985
C     7.156151    7.335014    6.850736
C     7.863240    8.565102    6.861840
C     9.291810    8.564568    6.861995
C    24.955174   13.482721    6.949701
C    26.394571   13.486425    6.972144
C    28.532295   17.210938    6.900173
C    27.104230   17.207761    6.929916
C    24.240126   17.206392    6.882072
C    24.952587   18.439607    6.876515
C    26.387331   18.445214    6.888742
C     7.863879    1.173474    6.862312
C     9.292803    1.173411    6.862428
C    12.128265    1.167623    6.859651
C     5.024969    1.167862    6.862936
C    33.501784    1.178197    6.852270
C     3.596179    1.168397    6.862344
C    16.392265    1.177842    6.856925
C     0.759342    1.176419    6.856964
C    13.555300    1.168781    6.859867
C    17.821983    1.179005    6.859116
C    20.666920    1.182666    6.876077
C    29.238245    1.183693    6.834593
C    30.666120    1.178468    6.835892
C    24.951134    1.195686    6.852993
C    22.100034    1.184631    6.872091
C    26.385592    1.197032    6.859356
C     9.998715    2.402934    6.850040
C     7.157641    2.403064    6.851293
C     5.734896    2.403683    6.862168
C    14.265811    2.404658    6.858933
C     2.885753    2.404916    6.862169
C    11.419912    2.403159    6.859031
C    31.373012    2.410706    6.844564
C     1.464684    2.405396    6.848825
C    18.533071    2.411272    6.851439
C    32.794547    2.408827    6.841064
C    15.687732    2.406232    6.846160
C    22.814613    2.421163    6.864525
C    27.095867    2.420410    6.829355
C    19.954426    2.414449    6.870740
C    28.521710    2.418418    6.832104
C    24.238734    2.424418    6.846882
C    12.129358    3.638855    6.859375
C    33.499724    3.636603    6.857655
C     3.595713    3.640228    6.862549
C    16.395802    3.635289    6.856534
C    20.670720    3.647362    6.865561
C    30.661328    3.646849    6.845579
C     0.758034    3.636286    6.859162
C     5.024187    3.639983    6.862851
C    13.556994    3.639308    6.860131
C    17.825900    3.636486    6.860110
C    29.230938    3.648362    6.839035
C    24.952088    3.647055    6.845727
C    22.101349    3.649023    6.863094
C    26.383327    3.646118    6.836656
C    27.096943    4.876495    6.838384
C    31.367074    4.872756    6.841603
C     1.467252    4.870598    6.859200
C    14.263620    4.868739    6.849203
C    18.538635    4.869816    6.859434
C    22.813977    4.873555    6.842199
C    28.520316    4.875521    6.830902
C    32.789841    4.872616    6.857278
C     2.888759    4.870916    6.850753
C    11.423539    4.868145    6.849590
C    15.686542    4.869093    6.858379
C    19.961559    4.871261    6.848490
C    24.236621    4.875982    6.846533
C     5.731544    4.869864    6.851276
C    24.952314    6.106085    6.843610
C    29.229157    6.101133    6.850174
C    33.499041    6.106155    6.859436
C    16.396650    6.102592    6.859731
C    20.672347    6.096512    6.851036
C    26.382578    6.106050    6.842924
C    30.659686    6.101428    6.852502
C     0.757795    6.106746    6.859788
C    17.827333    6.103373    6.859049
C    22.102538    6.097137    6.849368
C     3.595399    6.100112    6.862666
C    12.129208    6.097981    6.860597
C    13.557881    6.097324    6.862232
C     5.024195    6.100006    6.862869
C    24.241936    7.328597    6.831936
C    22.817127    7.326625    6.840256
C    27.093854    7.332398    6.837544
C    31.370145    7.335036    6.855300
C    18.534408    7.328243    6.844097
C    28.517673    7.333718    6.852549
C    32.793030    7.335869    6.847547
C    15.689577    7.332405    6.852903
C    19.959823    7.328252    6.845580
C     1.464199    7.335750    6.850069
C    14.266480    7.332591    6.863602
C     2.885672    7.336163    6.862448
C     5.734572    7.335704    6.861826
C    24.953942    8.553069    6.850241
C    29.231154    8.567678    6.859515
C    22.101880    8.555577    6.832539
C    26.385065    8.555011    6.853548
C    20.672855    8.554469    6.831277
C    33.499618    8.564375    6.860027
C    16.395130    8.559222    6.867336
C    30.661150    8.568793    6.857027
C    17.824681    8.555882    6.864167
C     3.595723    8.571759    6.862474
C     0.758304    8.565438    6.860683
C    13.556588    8.568542    6.864394
C    12.128889    8.569652    6.861559
C     5.024164    8.571701    6.862678
C    27.104025    9.788071    6.869249
C    24.238253    9.781732    6.856473
C    22.814103    9.781206    6.817636
C    28.524255    9.793354    6.860237
C    18.535991    9.788441    6.860122
C    31.369417    9.798292    6.849817
C    19.960303    9.788194    6.824140
C    32.790878    9.799810    6.859553
C    15.683632    9.797185    6.868937
C     1.468033    9.801110    6.859918
C    14.262557    9.798422    6.855334
C     2.889546    9.801304    6.850867
C     5.731344    9.801100    6.851004
C    10.001069    9.800180    6.862446
C    11.422531    9.799781    6.851418
C     7.153164    9.800742    6.861268
C    24.955377   11.019454    6.855510
C    26.391169   11.021050    6.883554
C    29.236787   11.025465    6.884063
C    22.101335   11.019005    6.808748
C    16.389839   11.032416    6.870501
C    20.670172   11.017690    6.816344
C    33.501528   11.036008    6.859233
C    17.819439   11.032767    6.868881
C    30.664450   11.026885    6.871280
C     0.759729   11.036159    6.859634
C     3.596219   11.030846    6.862456
C    12.128170   11.030033    6.863236
C    13.554742   11.029174    6.865788
C     7.863063   11.036592    6.862080
C     5.024608   11.030760    6.862590
C     9.291390   11.036471    6.862370
C    27.107287   12.253224    6.932773
C    24.243648   12.253803    6.883876
C    22.812597   12.254816    6.869466
C    31.377227   12.263947    6.868171
C    19.953304   12.263315    6.827274
C    28.528109   12.257116    6.917703
C    14.264391   12.265875    6.867585
C    18.527652   12.260995    6.843466
C     1.466239   12.266785    6.849717
C    15.683615   12.264005    6.858375
C    32.797302   12.265430    6.848828
C     5.734466   12.266366    6.861941
C     9.997348   12.266540    6.851554
C     2.886810   12.266487    6.862483
C    11.418190   12.266424    6.862213
C     7.156441   12.266505    6.851327
C    29.244399   13.495958    6.913351
C    16.389976   13.495428    6.870037
C    20.667779   13.501430    6.833039
C    33.504806   13.496164    6.858395
C     3.596683   13.502495    6.862845
C    13.553124   13.502187    6.865634
C    17.815156   13.497625    6.861813
C    22.100768   13.501180    6.832992
C    30.668129   13.498505    6.876669
C     0.760961   13.496332    6.859868
C    12.127038   13.502342    6.863348
C     7.863112   13.496110    6.863011
C     5.024760   13.502193    6.863070
C     9.291204   13.496283    6.863549
C    10.000780   14.732913    6.864135
C    14.258747   14.732918    6.855448
C    18.527674   14.730139    6.856954
C    31.379106   14.732905    6.853333
C     1.470381   14.733413    6.859747
C     5.731400   14.732307    6.851804
C    11.421167   14.733138    6.852331
C    15.677661   14.731732    6.869637
C    19.954702   14.731535    6.822979
C    28.537479   14.726701    6.931913
C    32.796871   14.732991    6.858380
C     2.890625   14.732533    6.851635
C     7.153341   14.732566    6.862191
C    22.814139   14.731530    6.852959
C     7.863406   15.968381    6.863327
C    12.126784   15.963140    6.862008
C    16.388220   15.969547    6.866713
C    33.505857   15.970284    6.855775
C     3.596395   15.962990    6.863343
C     9.291650   15.968933    6.863689
C    13.552843   15.963347    6.863136
C    17.813126   15.967496    6.864588
C     0.762140   15.969622    6.858525
C     5.025060   15.962450    6.863593
C    20.668595   15.965198    6.874819
C    29.250289   15.962515    6.891069
C    30.677953   15.963717    6.869061
C    22.101094   15.967490    6.834769
C     7.157095   17.199169    6.852010
C     5.734916   17.198719    6.862340
C     9.997944   17.198970    6.851806
C    14.263155   17.199541    6.861146
C     1.467064   17.200432    6.848238
C    11.418245   17.199457    6.860567
C    15.680960   17.200112    6.848356
C    32.800242   17.201535    6.841867
C     2.887001   17.199137    6.862417
C    18.524242   17.202996    6.831837
C    31.384495   17.203225    6.855159
C    19.948727   17.202293    6.822236
C    22.816997   17.202556    6.857758
C     7.863814   18.428938    6.863153
C    12.127619   18.435158    6.860305
C     5.024919   18.435095    6.862734
C     9.292335   18.429424    6.863456
C     3.596538   18.435743    6.861958
C    16.389170   18.432822    6.857464
C    33.504988   18.433488    6.852361
C    13.553748   18.436500    6.859551
C     0.760457   18.431331    6.856481
C    20.665457   18.445331    6.858810
C    17.814807   18.434701    6.860441
C    30.673104   18.444114    6.850572
C    29.247074   18.447791    6.864491
C    22.097928   18.444369    6.854681
C    10.001549   19.664862    6.862828
C     7.154452   19.665160    6.861963
C     5.731763   19.665017    6.851296
C    11.422315   19.665349    6.850114
C     1.469236   19.667329    6.857157
C    14.260391   19.666328    6.847530
C     2.889864   19.665906    6.849904
C    15.680751   19.668882    6.857465
C    32.794058   19.670292    6.848531
C    18.529203   19.676060    6.862241
C    31.375161   19.673033    6.829231
C    19.953153   19.675314    6.862107
C    22.810758   19.678896    6.857571
C    27.103837   19.683399    6.839319
C    28.531297   19.684763    6.823410
C    24.234198   19.681346    6.869916
Li    0.037449   19.665811    4.968028
Li    0.039039   14.731768    4.974636
Li    0.033852    9.796621    4.973996
Li    0.031020    4.869291    4.970756
Li    4.308245   17.196320    4.975379
Li    4.307852   12.265956    4.976811
Li    4.308054    7.334383    4.975212
Li    4.308319    2.401102    4.975515
Li    8.584623    4.867062    4.974090
Li    8.584499    9.798624    4.975617
Li    8.584690   14.731369    4.976154
Li    8.584886   19.663398    4.975921
Li   12.854254   17.196776    4.976544
Li   12.856139   12.264926    4.978123
Li   12.860187    7.332691    4.974907
Li   12.859351    2.401391    4.972519
Li   17.111201   19.675713    4.976931
Li   17.103887   14.727951    4.986732
Li   17.108049    9.787731    4.981223
Li   17.124826    4.867856    4.971030
Li   21.381450   17.209983    4.998563
Li   21.397735   12.264869    4.981412
Li   21.387424    7.309632    4.958942
Li   21.385322    2.419927    4.982635
Li   25.658218   19.678007    5.000383
Li   25.701826   14.719008    5.064343
Li   25.682941    9.777684    4.983630
Li   25.660761    4.879066    4.954244
Li   29.948267   17.196042    4.997247
Li   29.930851   12.260877    5.003003
Li   29.931570    7.332643    4.966442
Li   29.945408    2.419440    4.958095
C    10.007175    4.865745    3.082650
C     7.155475    4.866059    3.085014
C     7.866908    6.101985    3.083904
C     9.295714    6.101942    3.083040
C    27.093309   14.729489    3.185580
C    24.241204   14.729546    3.200479
C    24.951693   15.965494    3.202768
C    26.382273   15.966019    3.195614
C     7.867034    3.629872    3.084501
C     9.295990    3.629860    3.082964
C    11.426297    7.331925    3.083376
C    10.003821    7.332046    3.094013
C     7.158493    7.332258    3.095312
C     7.866860    8.562283    3.084424
C     9.295570    8.562153    3.083846
C    24.951681   13.493295    3.191052
C    26.382269   13.493202    3.183493
C    28.512465   17.196174    3.148023
C    27.089636   17.196032    3.184574
C    24.244302   17.195404    3.193741
C    24.951209   18.424982    3.161639
C    26.382033   18.425689    3.158518
C     7.867270    1.169633    3.085083
C     9.296081    1.169561    3.083200
C    12.137773    1.163709    3.079534
C     5.025072    1.164059    3.085663
C    33.494591    1.170033    3.074452
C     3.596296    1.164023    3.083468
C    16.408376    1.169912    3.081846
C     0.754459    1.170230    3.077199
C    13.566907    1.163617    3.077858
C    17.837806    1.169900    3.089444
C    20.679285    1.164132    3.109046
C    29.223465    1.164197    3.091417
C    30.653162    1.164324    3.080353
C    24.951354    1.170322    3.116292
C    22.109641    1.164024    3.116548
C    26.381613    1.170294    3.112203
C    10.004288    2.399631    3.092995
C     7.158893    2.399900    3.096427
C     5.736590    2.400012    3.086207
C    14.277922    2.399666    3.076830
C     2.884803    2.400221    3.083222
C    11.426594    2.399635    3.080839
C    31.364021    2.400028    3.069211
C     1.462448    2.400193    3.090612
C    18.545397    2.400082    3.096587
C    32.786775    2.400417    3.082268
C    15.700599    2.399789    3.088126
C    22.820304    2.400330    3.099769
C    27.089168    2.400534    3.099276
C    19.968629    2.399974    3.092028
C    28.512331    2.400285    3.080100
C    24.243823    2.400402    3.109087
C    12.137619    3.635570    3.079712
C    33.494592    3.630319    3.073489
C     3.596287    3.636097    3.084168
C    16.408444    3.629939    3.076709
C    20.679504    3.636060    3.081292
C    30.652931    3.636364    3.064261
C     0.754516    3.630550    3.079047
C     5.025055    3.636035    3.085532
C    13.566914    3.635610    3.077121
C    17.837867    3.629970    3.077979
C    29.223063    3.636285    3.065322
C    24.951181    3.630299    3.078372
C    22.109736    3.635963    3.082738
C    26.381544    3.630257    3.074992
C    27.091894    4.866248    3.064138
C    31.360465    4.866373    3.076996
C     1.465754    4.866208    3.081175
C    14.274688    4.865620    3.087792
C    18.548817    4.865939    3.074575
C    22.817049    4.866197    3.081432
C    28.515557    4.866248    3.073632
C    32.783546    4.866396    3.071665
C     2.888062    4.866441    3.094261
C    11.429783    4.865634    3.092116
C    15.697573    4.865731    3.076401
C    19.972103    4.866038    3.083381
C    24.240649    4.866210    3.068140
C     5.733254    4.866216    3.096106
C    24.951019    6.102267    3.063990
C    29.223089    6.096378    3.064599
C    33.494567    6.102183    3.074814
C    16.408642    6.101571    3.077472
C    20.679544    6.096014    3.068044
C    26.381411    6.102076    3.062779
C    30.652785    6.096408    3.067899
C     0.754512    6.102291    3.079476
C    17.838180    6.101860    3.075519
C    22.110016    6.096156    3.067333
C     3.596131    6.096350    3.083905
C    12.137625    6.095890    3.081746
C    13.566783    6.095835    3.079336
C     5.025008    6.096369    3.085141
C    24.243884    7.332317    3.083741
C    22.820375    7.332150    3.073983
C    27.088905    7.332009    3.079307
C    31.363683    7.332346    3.073185
C    18.545916    7.331725    3.090083
C    28.512281    7.332108    3.069056
C    32.786678    7.332246    3.085933
C    15.700848    7.331788    3.091711
C    19.969132    7.331989    3.075202
C     1.462486    7.332278    3.092054
C    14.277992    7.331721    3.080693
C     2.884822    7.332336    3.083426
C     5.736444    7.332227    3.084956
C    24.951284    8.562188    3.087316
C    29.223240    8.568133    3.078156
C    22.110063    8.567958    3.087859
C    26.381586    8.562102    3.082910
C    20.679937    8.567836    3.086778
C    33.494543    8.562240    3.078545
C    16.408820    8.561603    3.086877
C    30.653001    8.568061    3.077981
C    17.838337    8.561955    3.089627
C     3.596167    8.568279    3.083199
C     0.754441    8.562313    3.081007
C    13.566651    8.567862    3.082675
C    12.137484    8.567738    3.083245
C     5.024929    8.568329    3.084365
C    27.092439    9.797858    3.099619
C    24.240844    9.797903    3.109708
C    22.817478    9.797537    3.117576
C    28.515971    9.797955    3.105283
C    18.549394    9.797522    3.101623
C    31.360488    9.798299    3.096479
C    19.972743    9.797697    3.112229
C    32.783494    9.798113    3.082314
C    15.697526    9.798046    3.090204
C     1.465554    9.798227    3.082437
C    14.274650    9.797761    3.096649
C     2.888072    9.798139    3.093727
C     5.733206    9.798185    3.095505
C    10.007053    9.798114    3.083774
C    11.429414    9.798181    3.094632
C     7.155474    9.798177    3.085218
C    24.951277   11.033923    3.135352
C    26.382005   11.033923    3.129303
C    29.223292   11.027875    3.108055
C    22.110609   11.027588    3.118290
C    16.408702   11.033531    3.098326
C    20.680230   11.027457    3.112130
C    33.494451   11.033979    3.083947
C    17.838460   11.033805    3.107611
C    30.652979   11.028198    3.099707
C     0.754553   11.033721    3.082207
C     3.596252   11.028100    3.083382
C    12.137465   11.028019    3.084393
C    13.566758   11.028014    3.086073
C     7.866870   11.033995    3.084315
C     5.025056   11.028087    3.084695
C     9.295741   11.034107    3.083597
C    27.089475   12.263180    3.162944
C    24.244494   12.263456    3.172361
C    22.821535   12.263604    3.141682
C    31.363763   12.263966    3.102843
C    19.969348   12.263883    3.119880
C    28.512543   12.263649    3.132207
C    14.278015   12.263590    3.088495
C    18.545981   12.263551    3.127062
C     1.462507   12.263857    3.092140
C    15.700724   12.263833    3.107152
C    32.786660   12.263754    3.100887
C     5.736473   12.263913    3.085065
C    10.003913   12.263916    3.094099
C     2.884918   12.263752    3.082433
C    11.426370   12.263979    3.084285
C     7.158824   12.263927    3.095544
C    29.223618   13.499735    3.135492
C    16.408641   13.493511    3.101650
C    20.680072   13.500042    3.131386
C    33.494493   13.493809    3.085324
C     3.596248   13.499610    3.082081
C    13.566777   13.499789    3.085568
C    17.838339   13.493499    3.114731
C    22.110852   13.500464    3.148067
C    30.653343   13.499699    3.114400
C     0.754523   13.493657    3.080795
C    12.137563   13.499736    3.083373
C     7.866959   13.493807    3.084270
C     5.025172   13.499489    3.083952
C     9.295929   13.493997    3.083423
C    10.007079   14.729677    3.082649
C    14.274546   14.729641    3.097879
C    18.549206   14.729493    3.123088
C    31.360923   14.729684    3.116339
C     1.465606   14.729551    3.079797
C     5.733302   14.729573    3.095137
C    11.429839   14.729677    3.092930
C    15.697487   14.729573    3.095610
C    19.972288   14.729686    3.146271
C    28.516779   14.729724    3.168590
C    32.783623   14.729580    3.089234
C     2.888162   14.729510    3.091694
C     7.155759   14.729590    3.084884
C    22.817840   14.729495    3.186612
C     7.867094   15.965324    3.083878
C    12.137602   15.959616    3.081353
C    16.408333   15.965626    3.100359
C    33.494559   15.965796    3.082432
C     3.596226   15.959490    3.082171
C     9.296160   15.965437    3.082620
C    13.566836   15.959581    3.083460
C    17.838014   15.965557    3.114969
C     0.754441   15.965519    3.078632
C     5.025239   15.959461    3.084085
C    20.679864   15.959137    3.141166
C    29.223610   15.959410    3.140578
C    30.653517   15.959714    3.113735
C    22.110509   15.959068    3.161733
C     7.159075   17.195372    3.095525
C     5.736598   17.195205    3.085084
C    10.004049   17.195472    3.092504
C    14.277773   17.195648    3.084357
C     1.462403   17.195564    3.089277
C    11.426768   17.195422    3.081224
C    15.700657   17.195442    3.103297
C    32.786903   17.195812    3.096266
C     2.885075   17.195444    3.081403
C    18.545248   17.195568    3.129100
C    31.363875   17.195779    3.100372
C    19.968734   17.195408    3.129720
C    22.821176   17.195290    3.163860
C     7.867179   18.425416    3.084477
C    12.137624   18.431229    3.079914
C     5.025328   18.431384    3.084660
C     9.296270   18.425344    3.082861
C     3.596225   18.431264    3.082621
C    16.408166   18.425655    3.093271
C    33.494506   18.425699    3.079266
C    13.567022   18.431236    3.080670
C     0.754522   18.425696    3.077598
C    20.679407   18.431775    3.128199
C    17.837897   18.425346    3.105524
C    30.653259   18.431914    3.103114
C    29.223449   18.432175    3.123787
C    22.110129   18.431737    3.142768
C    10.007418   19.661225    3.082380
C     7.155870   19.661329    3.085794
C     5.733402   19.661263    3.096489
C    11.430011   19.661310    3.091083
C     1.465704   19.661600    3.078632
C    14.274527   19.661464    3.090493
C     2.888105   19.661526    3.092397
C    15.697444   19.661226    3.084129
C    32.783516   19.661945    3.078677
C    18.548676   19.661632    3.103624
C    31.360773   19.661758    3.097183
C    19.971785   19.661662    3.126435
C    22.816937   19.661986    3.146837
C    27.092704   19.661923    3.131587
C    28.516107   19.662329    3.129162
C    24.240319   19.661640    3.138121
