176
11 layer Li slab
 Li 0.124200864234743 0.480535100668635 64.9924271011421
 Li 3.46201337461771 0.480554822574012 64.9920296890586
 Li 6.79636735157477 0.480548287764666 64.9915190330526
 Li 10.1304444365576 0.480565200268244 64.9920037593754
 Li 0.124231526878901 3.81504340792507 64.992764716201
 Li 3.46195680557415 3.81505288548887 64.992396408864
 Li 6.79635481007493 3.8149900245283 64.9920836651339
 Li 10.1304796268419 3.81503414732392 64.9923752417757
 Li 0.124224180840896 7.15285054133843 64.9929991417042
 Li 3.46195080999638 7.15284985340806 64.9927155027206
 Li 6.79637798803665 7.15286313575599 64.9924366263318
 Li 10.1305003176708 7.15286842752807 64.9927117984801
 Li 0.124197491259218 10.4902293745947 64.9926673475946
 Li 3.46196660064427 10.4902559922083 64.992279460701
 Li 6.79635835556223 10.4902883249357 64.991964600262
 Li 10.1304742292344 10.4902547751007 64.9922360681699
 Li 1.79088348266502 2.14531786761485 66.7964070211986
 Li 5.12689705989097 2.14531386703516 66.7962308051882
 Li 8.46078022259403 2.14531380353389 66.7962233967073
 Li 11.7966233306741 2.14532260904264 66.7963969668317
 Li 1.79087402097654 5.4815221179725 66.7965668327155
 Li 5.12688542328416 5.48152682764965 66.7964139005023
 Li 8.46079223491666 5.48152635139016 66.7964012002493
 Li 11.7966304216487 5.48152185338389 66.7965504282221
 Li 1.790876587486 8.81949310052486 66.7965747703736
 Li 5.1268855291196 8.81950405449307 66.7964228965149
 Li 8.46079175865717 8.8195097166892 66.7964133713251
 Li 11.7966264528196 8.81949415887928 66.7965631284751
 Li 1.79087986838469 12.1551384021645 66.7964218381604
 Li 5.12689922951753 12.1551467102466 66.796250384745
 Li 8.46078662563825 12.1551452285505 66.7962382136692
 Li 11.7966166630413 12.1551369204683 66.7964123129707
 Li 0.124600775092954 0.483124805024285 68.4306094299846
 Li 3.46191464073419 0.483119698993402 68.4305914379595
 Li 6.79656981477466 0.4831110898094 68.4306014923265
 Li 10.1311240059285 0.483120746764274 68.4306327137818
 Li 0.124605653577638 3.81788441747859 68.4306300678957
 Li 3.46192264718535 3.81787786097298 68.4306046673897
 Li 6.79657568864167 3.8178765486135 68.4306136634023
 Li 10.1311254876247 3.81787880820018 68.4306454140348
 Li 0.12460643411402 7.15528798447758 68.4306221302376
 Li 3.46192139832714 7.15528105225615 68.4306046673897
 Li 6.79658119208464 7.1552806818321 68.4306110175162
 Li 10.1311345894726 7.15528136976247 68.4306443556804
 Li 0.124603968148229 10.4923956673323 68.4306194843516
 Li 3.46191919694995 10.4923932860349 68.4305956713772
 Li 6.7965747361227 10.4923856658831 68.430607842453
 Li 10.1311260168019 10.4923931801994 68.4306374763767
 Li 1.78841921553318 2.144938807397 70.0498721078259
 Li 5.12440367742913 2.14494913164434 70.0498906290282
 Li 8.45851290992735 2.14495086734558 70.0498848080789
 Li 11.7944078773738 2.14494123102862 70.0498631118134
 Li 1.78841094978519 5.48108639345918 70.0498541158008
 Li 5.12439574506278 5.48110057540837 70.0498705202943
 Li 8.45850243221862 5.48110158084506 70.0498652285222
 Li 11.7943935895892 5.48108750473132 70.0498482948515
 Li 1.7884131458706 8.81883718537517 70.0498551741553
 Li 5.12439888308363 8.81884401176116 70.0498715786487
 Li 8.45850200887685 8.81884443510293 70.049864699345
 Li 11.7943909437032 8.81883543909039 70.0498504115604
 Li 1.78842058081038 12.1545561484822 70.0498736953575
 Li 5.12440396318483 12.1545638215517 70.0498932749143
 Li 8.45851576748427 12.1545652503302 70.049887453965
 Li 11.7944085653042 12.1545561484822 70.049864699345
 Li 0.125167293690958 0.482844234739267 71.6968499127747
 Li 3.4624363671274 0.482838966250981 71.6968800758756
 Li 6.79715466142527 0.482833436349154 71.6968642005593
 Li 10.1317575898 0.482839411289013 71.6968350958129
 Li 0.125172892385822 3.81765746924926 71.6968382708761
 Li 3.46244201344821 3.81764972209493 71.6968636713821
 Li 6.79716191115303 3.81764570563992 71.6968472668887
 Li 10.1317600769329 3.81764983851392 71.6968213372055
 Li 0.125177288790068 7.15500958434829 71.6968393292306
 Li 3.46245474016007 7.15500201711421 71.696865788091
 Li 6.79716577414665 7.15499582574088 71.6968546753696
 Li 10.1317564785278 7.15500132918384 71.6968218663827
 Li 0.125170653966231 10.4920626561151 71.6968504419519
 Li 3.46244248441593 10.4920609098304 71.6968790175212
 Li 6.79716042945685 10.492054348033 71.6968689631542
 Li 10.1317546793253 10.4920614919253 71.6968361541673
 Li 1.79088998625291 2.14565776871929 73.3450924512513
 Li 5.12697244118429 2.14566412413756 73.3450903345425
 Li 8.46110577241257 2.14566513486603 73.3450612297961
 Li 11.7968963331959 2.14565884824079 73.3450628173277
 Li 1.79088889614786 5.48178675949437 73.3450977430234
 Li 5.12696936666471 5.48178242024126 73.3450956263146
 Li 8.46109677640003 5.48178427236149 73.3450665215681
 Li 11.7968865963352 5.48178824119055 73.3450675799226
 Li 1.79089160553517 8.81951574930938 73.3451088557448
 Li 5.126967757966 8.81952194068271 73.3451056806816
 Li 8.46109899894431 8.81952209943588 73.3450765759351
 Li 11.7968812516454 8.81951675474607 73.3450781634667
 Li 1.79088829288585 12.1552564615996 73.3451025056183
 Li 5.1269731608653 12.1552639229983 73.3451009180867
 Li 8.46110566657713 12.1552661455426 73.3450718133402
 Li 11.7968980265629 12.1552560911756 73.3450718133402
 Li 0.127439662116688 0.483621411904591 74.9853819854645
 Li 3.46476123839903 0.483613808686462 74.9853692852114
 Li 6.79954574864098 0.483608625395707 74.9853766936923
 Li 10.1340921608898 0.483613735660007 74.9853862188821
 Li 0.127447501347852 3.818421230714 74.9853878064137
 Li 3.46477228232736 3.81841218707551 74.9853740478063
 Li 6.79955421547631 3.81840649842052 74.9853825146417
 Li 10.1340996222885 3.81841281150462 74.9853904522998
 Li 0.127453408023851 7.15575921678157 74.9853819854645
 Li 3.46478496141327 7.15575381917404 74.9853740478063
 Li 6.79956035393193 7.15574487607922 74.9853761645151
 Li 10.134097823086 7.15575339583228 74.9853915106542
 Li 0.127444926371556 10.4928283226178 74.9853819854645
 Li 3.46477062071093 10.4928243537888 74.9853692852114
 Li 6.79955167542571 10.4928146698459 74.9853735186291
 Li 10.134093642586 10.4928255179786 74.9853862188821
 Li 1.79018539209183 2.14492446140289 76.6334737084367
 Li 5.12624032451661 2.14493408184453 76.633451482994
 Li 8.46034746147308 2.14493526190971 76.6335006964743
 Li 11.7961701962306 2.14492598543325 76.6335234510943
 Li 1.79018519629627 5.48105617744059 76.6334864086897
 Li 5.12623534495908 5.48106665514931 76.633469475019
 Li 8.46034121718202 5.48106760766829 76.6335186884994
 Li 11.7961612002181 5.48105765913677 76.633540384765
 Li 1.79018296846022 8.81880659893253 76.6334927588162
 Li 5.12623635039578 8.8188136369894 76.6334774126772
 Li 8.46034031758077 8.81881517160331 76.633527684512
 Li 11.7961605652054 8.81880733978062 76.6335446181826
 Li 1.79018539738361 12.1545424957102 76.6334805877404
 Li 5.12623906507486 12.1545520208999 76.6334573039433
 Li 8.46034899608699 12.1545541905265 76.6335081049553
 Li 11.7961703020661 12.1545440832418 76.6335308595752
 Li 0.124091456846927 0.483973039046785 78.2553870349144
 Li 3.46139200944796 0.483968170616469 78.2553626927628
 Li 6.79602211636407 0.483957491291228 78.2554124354204
 Li 10.130594299543 0.48396733822072 78.255424077319
 Li 0.124094571583975 3.81868346447958 78.2553399381428
 Li 3.46139938088647 3.81867726252269 78.2553208877633
 Li 6.79603148280066 3.81867376995312 78.2553626927628
 Li 10.130594299543 3.81867523577399 78.2553817431423
 Li 0.124096075505601 7.15604656000568 78.2553716887753
 Li 3.46139738059662 7.1560443374614 78.2553510508642
 Li 6.79603598080693 7.15604439037912 78.2553960309269
 Li 10.1306030309669 7.15604544873354 78.255411377066
 Li 0.12409379739772 10.4932074251699 78.2554119062432
 Li 3.46139568722955 10.4932050438724 78.255388622446
 Li 6.79603000110447 10.493200387113 78.2554320149771
 Li 10.1305975804417 10.4932068959926 78.2554478902933
 Li 1.78783636388065 2.14857155601426 79.8969984537938
 Li 5.12368509711444 2.14856213665995 79.8971804907535
 Li 8.45758102886353 2.1485629992188 79.897242933664
 Li 11.7935898752452 2.14856770889596 79.897062484236
 Li 1.78782568508458 5.48461933925496 79.8968370547453
 Li 5.1236751909171 5.48463643167879 79.8969995121482
 Li 8.45758446851538 5.48463696085599 79.8970619550588
 Li 11.7935760637201 5.48462542479285 79.8969032018963
 Li 1.78782713503013 8.82261159473109 79.8968386422769
 Li 5.12367648740126 8.82261514021839 79.8970042747431
 Li 8.45759198283174 8.82261603981964 79.8970735969574
 Li 11.7935729415746 8.82260603837041 79.8969095520228
 Li 1.78783794082873 12.1583964404005 79.8970048039203
 Li 5.12368799171377 12.1584088231472 79.8971884284116
 Li 8.45758129345213 12.1584019438435 79.897250342145
 Li 11.7935908277642 12.1583966520714 79.8970672468309
 Li 0.119261373356967 0.483586734922131 81.6990886820395
 Li 3.45674931025334 0.483586950826432 81.6994919150722
 Li 6.79092508149373 0.483586127426696 81.6999163151933
 Li 10.1252819953843 0.483572832907692 81.6994485225411
 Li 0.119257105013605 3.81800887995798 81.6986970909054
 Li 3.4567555545444 3.81794280689175 81.6991447748236
 Li 6.79091238124073 3.81792004168825 81.6994289429844
 Li 10.125300622422 3.81793902327471 81.6990902695711
 Li 0.119257068500377 7.15560517329623 81.6984965327434
 Li 3.45666603363607 7.15561580975812 81.6987209038797
 Li 6.79092693361395 7.15560723708735 81.6990987364065
 Li 10.1253776177058 7.15560093987857 81.698724078943
 Li 0.119266843461769 10.493046661134 81.6987431293225
 Li 3.45675952337346 10.4931356158227 81.6991834047598
 Li 6.79091952513304 10.4931272548228 81.6994998527304
 Li 10.1253208369914 10.4931416484429 81.6991765254561
