560       
Geometry optimisation iteration:    17
Li   22.803329    9.687345   12.024851
Li   29.159349   16.103852   11.952106
Li   23.120383   14.200669   12.103964
Li   27.438122   19.496801   12.008537
Li   25.144488   17.720591   12.149755
Li   25.034694   11.313135   12.036554
Li   22.293420   16.985351   12.129927
Li   18.673541   17.217930   12.003492
Li   20.545980   11.203914   11.969884
Li   21.049401    0.022133   12.306964
Li   20.195243   14.423893   12.221020
Li   24.895100    1.087831   12.063474
Li   26.138438   14.526195   12.313263
Li   22.304238   12.094734   13.981921
Li   26.789293   16.522041   14.285809
Li   26.135225   19.010625   14.458487
Li   23.443744   18.467463   14.367973
Li   27.479261    1.809119   14.401338
Li   24.467723   13.200211   14.562815
Li   20.737096   17.528931   14.376322
Li   24.071709   15.896612   14.339065
Li   28.885792   18.412280   14.823132
Li   21.572499   14.871940   14.573805
Li   20.797709    9.604104   14.633547
Li   24.142818   10.275040   14.931801
Li   18.815920   15.909856   14.964000
Li   18.425140   19.237127   14.579899
Li   26.994723   12.150345   15.008946
Li   19.791360   12.786605   14.837274
Li   28.959224   14.938549   15.375917
Li   21.369350    0.175753   15.526288
Li   24.463002    1.158029   15.360918
Li   26.035540   14.745178   16.107934
Li   24.983446   17.602784   16.593102
Li   23.053500   14.312738   16.750485
Li   22.340680   16.922734   16.541260
Li   26.720431    0.057385   17.246592
Li   21.946676   11.873150   16.823331
Li   27.455700   16.849365   17.269087
Li   24.873691   12.407133   17.391305
Li   19.772462   18.002629   17.223315
Li   23.429302   19.252754   17.924023
Li   20.501393   14.702669   17.474146
Li   24.633765   15.581150   18.202217
Li   27.045320   14.149085   18.935336
Li   22.925575   13.398342   19.647924
Li   25.634776   17.735579   19.798324
Li   22.283834   16.593741   19.335409
C    16.414226   13.492570    6.841580
C    20.685217   11.026119    6.870542
C    22.820942    9.793238    6.878880
C     5.737115   19.657596    6.773410
C    24.956840    8.560333    6.870746
C     7.872727   18.424652    6.783945
C    27.092409    7.327572    6.846919
C    12.143673   15.958773    6.808647
C    31.363557    4.861886    6.785143
C    10.008249   17.191751    6.794509
C    29.227930    6.094860    6.816588
C    14.278956   14.725737    6.825743
C    33.499210    3.628930    6.763157
C    18.549583   12.259282    6.856284
C    12.143668   18.424757    6.800813
C    31.363540    7.327672    6.790829
C    16.414072   15.958663    6.852145
C     1.465666    2.395977    6.756124
C    20.685269   13.492341    6.872125
C     3.601379    1.162972    6.762004
C    22.820973   12.259391    6.875258
C    24.956863   11.026262    6.869121
C    27.092527    9.793318    6.849047
C    10.008204   19.657620    6.774820
C    29.227998    8.560550    6.820869
C    14.278816   17.191764    6.829018
C    33.499126    6.094743    6.762503
C    18.549653   14.725462    6.864859
C    31.363586    9.793537    6.804323
C    16.414106   18.424911    6.850570
C     1.465547    4.861840    6.741212
C    20.685236   15.958674    6.876481
C     3.601198    3.628864    6.733178
C    22.821031   14.725564    6.875312
C     5.736899    2.395805    6.738600
C    24.956787   13.492463    6.867638
C     7.872594    1.162893    6.753799
C    27.092567   12.259246    6.851695
C    29.228081   11.026336    6.828898
C    14.278933   19.657802    6.816649
C    33.499197    8.560615    6.777472
C    18.549495   17.191817    6.869871
C    12.143613    1.163040    6.779599
C    31.363791   12.259412    6.819836
C     1.465556    7.327747    6.749140
C    20.685276   18.425060    6.882150
C     3.601111    6.094881    6.725794
C    22.821009   17.191836    6.880380
C     5.736765    4.861874    6.717026
C    24.956708   15.958608    6.868396
C     7.872482    3.628819    6.724609
C    27.092470   14.725347    6.852495
C    10.008138    2.395866    6.747133
C    29.228191   13.492283    6.835877
C    33.499360   11.026489    6.800792
C    18.549607   19.658119    6.867744
C    12.143620    3.628881    6.758098
C    31.363964   14.725479    6.826322
C    16.414252    1.163346    6.835708
C     1.465733    9.793634    6.775134
C     3.601268    8.560890    6.745199
C    22.820929   19.658039    6.886018
C     5.736770    7.328030    6.721185
C    24.956685   18.424790    6.871156
C     7.872398    6.094973    6.714318
C    27.092395   17.191623    6.848598
C    10.008075    4.861889    6.727853
C    29.228232   15.958542    6.832663
C    14.278977    2.396079    6.796325
C    33.499598   13.492513    6.819080
C     1.466044   12.259522    6.804193
C    20.685243    1.163569    6.880657
C     3.601570   11.026728    6.778950
C    12.143658    6.094850    6.749157
C    31.363996   17.191724    6.816463
C    16.414371    3.629094    6.818900
C     5.737021    9.794024    6.749787
C     7.872467    8.561095    6.728973
C    27.092419   19.657877    6.848690
C    10.008082    7.327931    6.728534
C    29.228136   18.424846    6.822886
C    14.279032    4.861956    6.781723
C    33.499719   15.958674    6.819615
C    18.549686    2.396384    6.854658
C     1.466190   14.725615    6.819010
C    20.685204    3.629192    6.871248
C     3.601849   13.492640    6.806565
C    22.820841    2.396396    6.885186
C     5.737350   12.259846    6.784332
C    24.956657    1.163374    6.876685
C     7.872729   11.026989    6.760716
C    12.143687    8.560849    6.757402
C    31.363825   19.657872    6.799820
C    16.414394    6.094840    6.810995
C    10.008179    9.793929    6.749249
C    14.279088    7.327838    6.780488
C    33.499580   18.424772    6.801823
C    18.549746    4.861934    6.843547
C    12.143718   11.026810    6.777907
C     1.466124   17.191739    6.810684
C    20.685126    6.094594    6.866103
C     3.601861   15.958702    6.812632
C    22.820861    4.861938    6.878904
C     5.737458   14.725726    6.804292
C    24.956610    3.629253    6.874478
C     7.872902   13.492834    6.788967
C    27.092391    2.396436    6.851247
C    10.008283   12.259837    6.777045
C    29.228049    1.163321    6.818440
C    16.414380    8.560675    6.815031
C    14.279088    9.793793    6.792192
C    18.549690    7.327467    6.841820
C    12.143688   13.492774    6.798927
C    31.363596    2.396107    6.788648
C     1.465915   19.657766    6.785136
C    20.685120    8.560111    6.868669
C     3.601654   18.424709    6.794888
C    22.820893    7.327356    6.877897
C     5.737313   17.191676    6.799495
C    24.956653    6.094767    6.870553
C     7.872892   15.958748    6.797912
C    27.092346    4.862105    6.848209
C    10.008346   14.725783    6.795458
C    29.227977    3.629211    6.816726
C    16.414342   11.026607    6.826961
C    14.279014   12.259786    6.810249
C    33.499370    1.163102    6.778629
C    18.549625    9.793243    6.848215
C    15.701478   14.725548    6.841053
C     0.752826    1.163101    6.772936
C    19.972199   12.259211    6.867370
C    22.107716   11.026205    6.876555
C    24.243569    9.793228    6.875247
C     7.159823   19.657640    6.771064
C    26.379293    8.560351    6.856553
C     9.295436   18.424715    6.784890
C    28.514765    7.327641    6.828218
C    13.566289   15.958795    6.822166
C    32.786093    4.861851    6.768455
C    17.836821   13.492333    6.855445
C    11.430966   17.191785    6.801838
C    30.650400    6.094795    6.796492
C    15.701439   17.191808    6.845892
C     0.752581    3.628897    6.751599
C    19.972207   14.725447    6.871381
C     2.888322    2.395893    6.749196
C    22.107823   13.492415    6.874560
C     5.024088    1.162909    6.757940
C    24.243564   12.259304    6.871375
C    26.379370   11.026131    6.857426
C    28.514970    9.793333    6.832843
C    13.566286   18.424862    6.816304
C    32.786085    7.327644    6.775629
C    17.836781   15.958675    6.864130
C    11.430941   19.657786    6.784926
C    30.650461    8.560553    6.804561
C     0.752518    6.094749    6.748938
C    19.972163   17.191800    6.876947
C     9.295376    1.162976    6.757678
C    28.515082   12.259174    6.839078
C    32.786220    9.793513    6.793934
C    15.701550   19.658098    6.835874
C     2.888161    4.861858    6.730953
C    22.107884   15.958650    6.878063
C     5.023884    3.628810    6.727602
C    24.243526   14.725483    6.871030
C     7.159682    2.395824    6.737406
C    26.379347   13.492204    6.858334
C    30.650613   11.026393    6.817515
C    17.836731   18.424987    6.864938
C     0.752615    8.560648    6.766444
C    19.972204   19.658168    6.879035
C     2.888201    7.327848    6.738001
C    22.107831   18.424933    6.884370
C     5.023814    6.094931    6.718567
C    24.243526   17.191731    6.873910
C     7.159537    4.861878    6.715988
C    26.379260   15.958503    6.857219
C     9.295309    3.628883    6.730935
C    28.515099   14.725322    6.840938
C    13.566340    1.163227    6.797393
C    32.786437   12.259465    6.814252
C    11.430945    2.395977    6.760346
C    30.650806   13.492362    6.828239
C     0.752862   11.026544    6.794319
C    15.701707    2.396308    6.817213
C     2.888431    9.793773    6.766406
C     5.023959    8.561026    6.736990
C    24.243487   19.657947    6.879637
C     7.159531    7.328044    6.718763
C    26.379210   18.424866    6.856177
C     9.295258    6.094911    6.720640
C    28.515015   17.191697    6.833393
C    13.566415    3.629050    6.777834
C    32.786690   14.725587    6.823386
C    17.836800    1.163578    6.854262
C    11.430907    4.861871    6.743047
C    30.650914   15.958593    6.825683
C     0.753139   13.492563    6.816528
C    19.972187    2.396478    6.870564
C     2.888752   12.259637    6.798529
C    22.107699    1.163505    6.886439
C     5.024270   11.026902    6.771700
C    15.701748    4.861980    6.803487
C     7.159740    9.794044    6.745257
C     9.295284    8.560946    6.733185
C    28.514952   19.658021    6.828513
C    13.566502    6.094884    6.769394
C    32.786704   17.191745    6.813428
C    17.836945    3.629178    6.839615
C    11.430951    7.327823    6.743055
C    30.650838   18.424847    6.811804
C     0.753214   15.958694    6.819016
C    19.972081    4.861903    6.861254
C     2.888932   14.725649    6.815758
C    22.107552    3.629232    6.880332
C     5.024541   13.492741    6.800750
C    24.243357    2.396434    6.881730
C     7.159997   12.259870    6.778873
C    26.379227    1.163460    6.860956
C     9.295443   11.026844    6.761563
C    15.701814    7.327712    6.801803
C    13.566485    8.560747    6.775821
C    32.786465   19.657764    6.792553
C    17.836988    6.094712    6.832337
C    11.431012    9.793777    6.760126
C     0.753069   18.424769    6.800630
C    19.972033    7.327281    6.860061
C     2.888843   17.191738    6.808616
C    22.107473    6.094648    6.875971
C     5.024536   15.958702    6.808145
C    24.243214    4.862068    6.876531
C     7.160102   14.725739    6.799054
C    26.379063    3.629372    6.859685
C     9.295562   13.492750    6.787695
C    28.514879    2.396438    6.829176
C    13.566437   11.026688    6.793013
C    11.430997   12.259730    6.784219
C    30.650649    1.163290    6.800503
C    15.701807    9.793575    6.811336
C    17.836915    8.560354    6.835575
C    15.701665   12.259550    6.826676
C    19.972125    9.793131    6.864403
C     2.888581   19.657661    6.781805
C    22.107572    8.560200    6.877511
C     5.024358   18.424648    6.791270
C    24.243368    7.327411    6.875030
C     7.160009   17.191703    6.795458
C    26.379045    6.094859    6.856409
C     9.295539   15.958783    6.797027
C    28.514721    4.862114    6.827677
C    13.566355   13.492672    6.811960
C    32.786234    2.396028    6.775079
C    17.836850   11.026263    6.844553
C    11.430974   14.725731    6.801335
C    30.650418    3.629107    6.795378
C    12.840370   17.195580   10.031734
C    32.086082    6.097654    9.999759
C    17.102646   14.725010   10.060524
C     2.180514    1.167907    9.998130
C    21.387308   12.255352   10.036242
C    25.685529    9.787178   10.113773
C    10.708542   18.428452   10.007393
C    29.951841    7.328920   10.027654
C    14.971411   15.962571   10.058488
C     0.049586    2.401210    9.992503
C    19.239114   13.493645   10.046028
C    23.538843   11.025793   10.082676
C     8.576433   19.661696    9.997183
C    27.817522    8.558227   10.070931
C    12.840735   19.662181   10.016940
C    32.085398    8.561752   10.007636
C    17.102044   17.197253   10.078533
C     2.181026    3.633002    9.988002
C    21.384530   14.721937   10.041908
C     6.444067    1.166973    9.992794
C    25.682797   12.257843   10.050736
C    29.952444    9.792509   10.033595
C    14.971827   18.430388   10.056051
C     0.049558    4.865378    9.988430
C    19.241988   15.963602   10.036134
C     4.312135    2.400004    9.989403
C    23.535112   13.490609   10.014194
C    27.823583   11.022838   10.063628
C    32.085262   11.027144   10.023267
C    17.105802   19.670360   10.072705
C     2.181082    6.097519    9.985824
C    21.385072   17.195848   10.027026
C     6.444045    3.632784    9.983011
C    25.681574   14.725842   10.043563
C    10.708711    1.167274    9.992021
C    29.954627   12.257755   10.044746
C     0.049142    7.329590    9.992466
C    19.243292   18.433256   10.056225
C     4.312425    4.865277    9.983789
C    23.530494   15.957233   10.063074
C     8.576300    2.400241    9.983812
C    27.821510   13.486850   10.065405
C    12.841653    2.400234    9.996735
C    32.086845   13.493593   10.039239
C     2.180857    8.562610    9.994036
C    21.385972   19.668127   10.075699
C     6.443732    6.098253    9.979500
C    25.676515   17.191174   10.020148
C    10.708594    3.633288    9.979918
C    29.957775   14.724153   10.045391
C    14.974583    1.169338   10.031698
C     0.048528    9.794969   10.006488
C     4.312386    7.330482    9.984708
C    23.530821   18.426364   10.083239
C     8.575774    4.866058    9.976347
C    27.818661   15.959255   10.015141
C    12.841974    4.865513    9.984592
C    32.092107   15.962817   10.031354
C    17.111032    2.404786   10.048894
C     2.180622   11.028674   10.009923
C     6.443787    8.563767    9.984729
C    25.675286   19.661301   10.084973
C    10.708120    6.098694    9.975932
C    29.957683   17.199429    9.996661
C    14.976538    3.633738   10.008803
C     0.048449   12.261220   10.025150
C    19.245091    1.176801   10.088741
C     4.312526    9.796364    9.996257
C     8.575310    7.331349    9.977441
C    27.820077   18.429867    9.995709
C    12.841766    7.330587    9.984404
C    32.089086   18.431307   10.003350
C    17.113046    4.866022   10.031112
C     2.180362   13.495186   10.026936
C    21.386649    2.406713   10.122981
C     6.444616   11.029526    9.998203
C    10.708127    8.563829    9.981021
C    29.960497   19.666410    9.991909
C    14.976876    6.097393    9.999115
C     0.048966   14.728468   10.035051
C    19.249311    3.637318   10.078173
C     4.312883   12.262583   10.012860
C    23.528961    1.169530   10.128224
C     8.575880    9.796564    9.986221
C    12.841854    9.796342    9.994266
C    17.112025    7.327227   10.024621
C     2.180138   15.962163   10.029449
C    21.389864    4.864791   10.114987
C     6.445237   13.495634   10.012025
C    25.676091    2.406620   10.139686
C    10.708753   11.029426    9.993683
C    14.976088    8.561903   10.002973
C     0.049714   17.196406   10.022427
C    19.250259    6.094519   10.065642
C     4.312698   14.728938   10.024320
C    23.529200    3.637233   10.147525
C     8.576931   12.262229   10.000085
C    27.822657    1.173620   10.064491
C    12.841630   12.262881   10.011309
C    32.087762    1.169650    9.995483
C    17.109210    9.791323   10.028534
C     2.180197   18.429322   10.016121
C    21.387724    7.319294   10.104256
C     6.444829   15.961959   10.016389
C    25.675588    4.865639   10.130335
C    10.709041   13.495525   10.007658
C    29.954039    2.404606   10.017082
C    14.975108   11.028383   10.016968
C     0.049770   19.663408   10.003439
C    19.245599    8.552226   10.062394
C     4.311973   17.195304   10.019838
C    23.533702    6.092920   10.135572
C     8.577155   14.728552   10.010211
C    27.816621    3.637232   10.081376
C    12.840576   14.729084   10.027901
C    32.086740    3.634123    9.996403
C    17.105981   12.259361   10.039430
C    21.385969    9.784502   10.092412
C     6.444203   18.428348   10.008060
C    25.678651    7.324485   10.121390
C    10.708759   15.962046   10.014681
C    29.952334    4.866693   10.026564
C    14.973312   13.495267   10.038974
C    19.239203   11.021593   10.038570
C     4.311828   19.661743   10.005583
C    23.537709    8.549160   10.123654
C     8.576698   17.195059   10.008314
C    27.815543    6.097154   10.076509
C    13.550844   15.962438   10.039987
C    32.797636    4.866023    9.992354
C    17.814090   13.492241   10.049524
C    22.097873   11.024888   10.073285
C     7.155427   19.661506    9.998248
C    26.393812    8.553610   10.106062
C    11.419372   17.195251   10.016768
C    30.663639    6.097871   10.015011
C    15.683080   14.728558   10.055409
C     0.760331    1.168707    9.996514
C    19.954181   12.258225   10.030265
C    24.251577    9.786983   10.119305
C     9.287587   18.428365   10.002785
C    28.528164    7.327259   10.055525
C    13.550917   18.428879   10.034584
C    32.796900    7.329756    9.997527
C    17.813635   15.960242   10.062505
C     2.891764    2.400496    9.990060
C    22.100063   13.490161   10.036333
C    26.398190   11.021923   10.074316
C    11.419468   19.661700   10.003240
C    30.663205    8.560603   10.019760
C    15.678590   17.196246   10.071264
C     0.760543    3.633500    9.988730
C    19.954299   14.725367   10.016947
C     5.023246    1.167071    9.994822
C    24.248882   12.255647   10.034881
C    28.530100    9.789829   10.054488
C    32.796275    9.794334   10.010477
C    17.815337   18.435470   10.073747
C     2.892193    4.865247    9.984995
C    22.095527   15.961589   10.034596
C     7.155293    2.399974    9.985128
C    26.396783   13.492373   10.058281
C    30.663695   11.024952   10.031307
C    15.683879   19.664157   10.054799
C     0.760471    6.097515    9.986830
C    19.952203   17.199057   10.019746
C     5.023502    3.632655    9.984539
C    24.243664   14.721791   10.043332
C     9.287450    1.167211    9.989151
C    28.533186   12.255263   10.055492
C    13.552133    1.167259   10.013130
C    32.796748   12.259913   10.028963
C     2.891960    7.329972    9.986691
C    22.096441   18.428000   10.081235
C     7.154905    4.865715    9.978545
C    26.388828   15.956069   10.041250
C    11.419787    2.400205    9.987028
C    30.667604   13.488761   10.046903
C     0.759989    8.562223    9.996046
C    19.956339   19.672151   10.082002
C     5.023357    6.097909    9.981390
C    24.242418   17.192999   10.045857
C     9.287168    3.633347    9.978163
C    28.532794   14.723398   10.043338
C    13.553543    3.632796    9.993744
C    32.798640   14.727647   10.036867
C    17.819165    1.173583   10.069030
C     2.891849    9.795621    9.998949
C     7.154530    7.331065    9.979159
C    26.389958   18.424109   10.036080
C    11.419819    4.865993    9.977873
C    30.671495   15.961708   10.025672
C    15.687134    2.401485   10.027223
C     0.759685   11.027987   10.013136
C     5.023282    8.563372    9.987284
C    24.239024   19.661807   10.089458
C     9.286667    6.098866    9.974723
C    28.532336   17.194609    9.982761
C    13.553789    6.097955    9.986473
C    32.800116   17.197012   10.017237
C    17.824122    3.635687   10.049876
C     2.892008   12.261958   10.016422
C    22.094886    1.173743   10.125151
C     7.155182    9.796495    9.988274
C    11.419707    7.331170    9.978254
C    30.671398   18.435269    9.992869
C    15.688770    4.865608   10.009767
C     0.759734   13.494501   10.030188
C    19.959091    2.407697   10.095530
C     5.023944   11.029418   10.001957
C     9.286756    8.563885    9.979853
C    28.536323   19.665705    9.997565
C    13.553348    8.563335    9.991481
C    32.798956   19.664964    9.998495
C    17.824878    6.096563   10.037321
C     2.891867   14.728841   10.028434
C    22.101495    3.636114   10.131579
C     7.156226   12.262437   10.002608
C    26.389955    1.172074   10.105991
C    11.419966    9.796512    9.987550
C    15.688188    7.329559   10.005575
C     0.759897   15.962292   10.030642
C    19.962800    4.865681   10.085089
C     5.024440   13.495835   10.016902
C    24.241013    2.405984   10.144060
C     9.287680   11.029211    9.991748
C    13.553070   11.029698   10.005987
C    17.821614    8.558431   10.034811
C     2.891430   17.195792   10.022231
C    22.104148    6.092458   10.119485
C     7.156466   14.728831   10.013052
C    26.390128    3.639064   10.122887
C    11.420207   12.262542   10.002731
C    30.667103    1.172445    9.998332
C    15.686283    9.794910   10.014293
C     0.760359   18.430288   10.013692
C    19.960915    7.323066   10.076074
C     5.024047   15.962272   10.020918
C    24.246186    4.864574   10.142340
C     9.288187   13.495309   10.004872
C    28.531948    2.408536   10.056072
C    13.552120   13.496212   10.025955
C    32.798151    2.402486    9.993155
C    17.814613   11.024766   10.035192
C     2.891285   19.662555   10.006350
C    22.100556    8.547874   10.105106
C     7.155890   17.195172   10.010432
C    26.389907    6.095143   10.110484
C    11.419929   14.728838   10.015827
C    30.664569    3.636071   10.010574
C    15.684426   12.262204   10.031752
C    19.952548    9.784408   10.067345
C     5.023319   18.428620   10.011731
C    24.251161    7.320016   10.133291
C     9.288006   15.961821   10.010106
C    28.528441    4.867303   10.059274
