548       
Geometry optimisation iteration:    19
Li    8.585383    4.867331    8.743744
Li    8.584716   14.731718    8.751691
Li   25.652801   14.733134    8.744553
Li   25.653437    4.865398    8.752664
C    10.019028    4.864626    6.832955
C     7.148805    4.864636    6.835390
C     7.865100    6.107611    6.834644
C     9.302716    6.107613    6.833697
C    27.101849   14.728453    6.839308
C    24.232130   14.728456    6.831047
C    24.948418   15.971538    6.832654
C    26.385796   15.971377    6.836929
C     7.865049    3.621548    6.834786
C     9.302770    3.621530    6.833874
C    11.433870    7.332814    6.845191
C    10.011286    7.337152    6.833089
C     7.156515    7.337149    6.834737
C     7.868456    8.563356    6.847165
C     9.299355    8.563329    6.847152
C    24.948368   13.485313    6.833044
C    26.385777   13.485474    6.837309
C    28.516755   17.196627    6.850880
C    27.094210   17.200949    6.837335
C    24.240039   17.201076    6.832878
C    24.951762   18.427205    6.847644
C    26.382475   18.427224    6.847912
C     7.868489    1.165850    6.846366
C     9.299335    1.165861    6.846351
C    12.143204    1.161801    6.854215
C     5.024314    1.161735    6.855487
C    33.495497    1.168930    6.860032
C     3.594749    1.162951    6.858265
C    16.411858    1.168864    6.859873
C     0.754621    1.168872    6.859546
C    13.572466    1.162939    6.858120
C    17.839908    1.168871    6.861356
C    20.679108    1.162807    6.859395
C    29.226235    1.161473    6.856142
C    30.655663    1.162962    6.857206
C    24.951800    1.165393    6.846769
C    22.108247    1.161465    6.856465
C    26.382435    1.165409    6.846957
C    10.011293    2.392015    6.831719
C     7.156498    2.392031    6.833348
C     5.733802    2.396570    6.847926
C    14.283028    2.398784    6.857580
C     2.883997    2.398776    6.857413
C    11.433867    2.396579    6.845647
C    31.366224    2.398733    6.856185
C     1.462713    2.398974    6.848375
C    18.547751    2.398940    6.850838
C    32.787420    2.398956    6.848255
C    15.704050    2.399025    6.849216
C    22.817443    2.396310    6.849813
C    27.094207    2.391837    6.839891
C    19.968666    2.398621    6.859565
C    28.516829    2.396456    6.854390
C    24.239925    2.391667    6.835718
C    12.146385    3.633478    6.844763
C    33.495604    3.629218    6.860405
C     3.594490    3.635027    6.852349
C    16.412001    3.629314    6.860951
C    20.678702    3.634886    6.854490
C    30.655940    3.634919    6.853572
C     0.754541    3.629279    6.859849
C     5.021084    3.633482    6.847918
C    13.572714    3.635058    6.851694
C    17.839821    3.629222    6.862632
C    29.229533    3.633446    6.854483
C    24.948238    3.621325    6.839338
C    22.104896    3.633342    6.849350
C    26.385801    3.621488    6.843457
C    27.101891    4.864632    6.846557
C    31.363219    4.864742    6.843684
C     1.466840    4.864898    6.856102
C    14.280046    4.864772    6.842738
C    18.551896    4.864857    6.860292
C    22.809223    4.864630    6.836054
C    28.524819    4.864647    6.845407
C    32.783212    4.864917    6.857737
C     2.886988    4.864754    6.842759
C    11.441842    4.864643    6.831009
C    15.699915    4.864882    6.857356
C    19.971595    4.864709    6.846036
C    24.231950    4.864640    6.838572
C     5.725864    4.864602    6.834862
C    24.948272    6.107848    6.841397
C    29.229470    6.095889    6.856910
C    33.495700    6.100523    6.858049
C    16.412067    6.100371    6.858467
C    20.678593    6.094522    6.855902
C    26.385713    6.107693    6.845479
C    30.656027    6.094536    6.855006
C     0.754503    6.100432    6.857389
C    17.839742    6.100431    6.860189
C    22.104917    6.095913    6.851862
C     3.594470    6.094421    6.852990
C    12.146329    6.095851    6.846119
C    13.572801    6.094484    6.852381
C     5.021186    6.095763    6.849227
C    24.239883    7.337530    6.841771
C    22.817378    7.333017    6.852649
C    27.094184    7.337386    6.845753
C    31.366273    7.330935    6.855596
C    18.547698    7.330707    6.850067
C    28.516851    7.332957    6.856989
C    32.787463    7.330769    6.847645
C    15.704065    7.330678    6.847999
C    19.968583    7.330971    6.858902
C     1.462739    7.330731    6.847182
C    14.283049    7.330927    6.855723
C     2.884033    7.330852    6.855548
C     5.733843    7.332757    6.847420
C    24.951698    8.563820    6.855556
C    29.226322    8.567836    6.856276
C    22.108121    8.567773    6.856761
C    26.382444    8.563802    6.855650
C    20.679137    8.566631    6.857930
C    33.495456    8.560787    6.861662
C    16.411768    8.560843    6.861066
C    30.655632    8.566591    6.855785
C    17.839937    8.560772    6.862881
C     3.594907    8.566496    6.854234
C     0.754726    8.560831    6.860715
C    13.572414    8.566611    6.854090
C    12.143244    8.567570    6.850154
C     5.024339    8.567555    6.851401
C    27.094265    9.796757    6.852855
C    24.239725    9.796773    6.854493
C    22.816373    9.796658    6.845888
C    28.517762    9.796660    6.844733
C    18.550698    9.796817    6.861864
C    31.362788    9.796749    6.847327
C    19.972227    9.796745    6.849471
C    32.784532    9.796789    6.860879
C    15.701187    9.796831    6.858916
C     1.465588    9.796740    6.858708
C    14.279589    9.796684    6.846361
C     2.887456    9.796584    6.846576
C     5.732885    9.796392    6.840957
C    10.011431    9.796363    6.848094
C    11.434933    9.796444    6.840340
C     7.156478    9.796344    6.848294
C    24.951802   11.029589    6.846954
C    26.382409   11.029595    6.847291
C    29.226146   11.025518    6.856268
C    22.108339   11.025573    6.855993
C    16.411867   11.032709    6.859173
C    20.679210   11.026799    6.858904
C    33.495533   11.032652    6.860219
C    17.839918   11.032750    6.860766
C    30.655598   11.026865    6.857403
C     0.754658   11.032572    6.859518
C     3.594735   11.026597    6.858511
C    12.143214   11.025384    6.854113
C    13.572516   11.026664    6.857953
C     7.868537   11.029223    6.845923
C     5.024351   11.025263    6.855793
C     9.299349   11.029273    6.845695
C    27.094141   12.255935    6.836156
C    24.240064   12.255750    6.831571
C    22.817661   12.260336    6.846173
C    31.366189   12.262606    6.855926
C    19.968741   12.262564    6.858159
C    28.516695   12.260445    6.851550
C    14.283110   12.262510    6.857964
C    18.547780   12.262817    6.849782
C     1.462697   12.262673    6.848910
C    15.704068   12.262832    6.848456
C    32.787434   12.262725    6.848663
C     5.733769   12.260188    6.851642
C    10.011309   12.255646    6.835334
C     2.883929   12.262430    6.858688
C    11.433948   12.260248    6.848660
C     7.156512   12.255596    6.837511
C    29.229404   13.497376    6.850837
C    16.412004   13.493133    6.859745
C    20.678897   13.498774    6.852092
C    33.495657   13.492966    6.861233
C     3.594375   13.498723    6.855149
C    13.572869   13.498798    6.853593
C    17.839816   13.493056    6.861347
C    22.105127   13.497288    6.844854
C    30.655841   13.498791    6.852410
C     0.754566   13.493044    6.860685
C    12.146522   13.497217    6.849086
C     7.865009   13.485287    6.841310
C     5.020970   13.497162    6.853036
C     9.302781   13.485276    6.840136
C    10.019084   14.728500    6.840205
C    14.280130   14.728562    6.843814
C    18.551955   14.728678    6.859062
C    31.363175   14.728548    6.843279
C     1.466796   14.728666    6.857260
C     5.725653   14.728416    6.842074
C    11.441975   14.728459    6.837422
C    15.699969   14.728693    6.856580
C    19.971749   14.728514    6.844162
C    28.524699   14.728469    6.839485
C    32.783224   14.728693    6.858575
C     2.886905   14.728511    6.845046
C     7.148676   14.728453    6.843086
C    22.809472   14.728420    6.829595
C     7.865002   15.971587    6.842754
C    12.146480   15.959734    6.851524
C    16.412052   15.964186    6.857501
C    33.495716   15.964335    6.858779
C     3.594257   15.958270    6.856553
C     9.302722   15.971643    6.841578
C    13.572945   15.958298    6.855099
C    17.839728   15.964238    6.858959
C     0.754488   15.964239    6.858425
C     5.020967   15.959688    6.855343
C    20.678843   15.958234    6.852822
C    29.229365   15.959627    6.852081
C    30.655927   15.958309    6.852989
C    22.105183   15.959593    6.846269
C     7.156394   17.201283    6.842889
C     5.733621   17.196774    6.854058
C    10.011338   17.201314    6.840750
C    14.283169   17.194766    6.857338
C     1.462662   17.194578    6.848222
C    11.434021   17.196795    6.851172
C    15.704113   17.194495    6.847827
C    32.787435   17.194583    6.847382
C     2.883857   17.194760    6.858007
C    18.547792   17.194438    6.848620
C    31.366217   17.194694    6.853936
C    19.968754   17.194642    6.856314
C    22.817626   17.196636    6.845717
C     7.868386   18.427627    6.854206
C    12.143359   18.431555    6.854150
C     5.024150   18.431587    6.855838
C     9.299376   18.427611    6.854030
C     3.594692   18.430430    6.856948
C    16.411811   18.424622    6.860754
C    33.495439   18.424645    6.861363
C    13.572514   18.430451    6.856353
C     0.754687   18.424694    6.861070
C    20.679309   18.430243    6.854886
C    17.839985   18.424508    6.862034
C    30.655560   18.430324    6.853247
C    29.226264   18.431469    6.852052
C    22.108317   18.431311    6.851916
C    10.011472   19.660556    6.852291
C     7.156401   19.660593    6.852420
C     5.732777   19.660444    6.844079
C    11.434976   19.660462    6.843426
C     1.465516   19.660630    6.859175
C    14.279604   19.660514    6.847443
C     2.887369   19.660504    6.847692
C    15.701196   19.660603    6.859346
C    32.784497   19.660621    6.860332
C    18.550740   19.660521    6.861472
C    31.362782   19.660487    6.846103
C    19.972270   19.660354    6.848362
C    22.816419   19.660183    6.842600
C    27.094291   19.660168    6.848486
C    28.517781   19.660244    6.841503
C    24.239775   19.660136    6.850113
Li    0.030490   19.652175    4.972021
Li    0.030559   14.719912    4.971743
Li    0.030660    9.786788    4.972006
Li    0.030535    4.855215    4.970889
Li    4.301340   17.188475    4.969781
Li    4.301086   12.249660    4.969297
Li    4.300662    7.326661    4.965796
Li    4.300714    2.384921    4.967233
Li    8.586164    4.855577    4.958258
Li    8.587375    9.786979    4.960955
Li    8.585976   14.721353    4.964699
Li    8.587386   19.650894    4.964514
Li   12.873393   17.188953    4.968178
Li   12.873788   12.249194    4.967613
Li   12.874279    7.327120    4.964706
Li   12.874142    2.384595    4.966278
Li   17.137381   19.652354    4.971981
Li   17.137339   14.719851    4.970933
Li   17.137080    9.786600    4.971913
Li   17.137349    4.855124    4.971894
Li   21.386530   17.189475    4.964957
Li   21.386702   12.248582    4.966367
Li   21.387577    7.327194    4.968966
Li   21.387002    2.384371    4.968357
Li   25.659201   19.652572    4.961087
Li   25.664457   14.720134    4.958277
Li   25.659170    9.785331    4.964796
Li   25.664472    4.856781    4.964788
Li   29.934722   17.188377    4.965763
Li   29.934588   12.249760    4.967243
Li   29.933755    7.326130    4.969120
Li   29.934087    2.385609    4.968491
C    10.010255    4.864946    3.088322
C     7.157279    4.864910    3.088755
C     7.868998    6.101141    3.088696
C     9.298536    6.101185    3.088713
C    27.094310   14.728714    3.087708
C    24.241773   14.728706    3.087196
C    24.953375   15.964949    3.087691
C    26.382751   15.964955    3.088205
C     7.868936    3.628574    3.085561
C     9.298591    3.628590    3.085569
C    11.429508    7.330974    3.080975
C    10.006922    7.331125    3.093629
C     7.160653    7.331111    3.093694
C     7.869036    8.560831    3.075731
C     9.298527    8.560836    3.075631
C    24.953322   13.492396    3.084634
C    26.382784   13.492392    3.085193
C    28.513364   17.194821    3.078440
C    27.090914   17.194978    3.092540
C    24.245139   17.194892    3.092526
C    24.953337   18.424605    3.074854
C    26.382690   18.424707    3.075823
C     7.869097    1.168837    3.079329
C     9.298433    1.168855    3.079171
C    12.140606    1.163115    3.076818
C     5.026827    1.163027    3.077478
C    33.495477    1.169189    3.080075
C     3.597398    1.162944    3.076323
C    16.411735    1.169031    3.080979
C     0.755463    1.169084    3.081483
C    13.569959    1.162978    3.075231
C    17.840845    1.169068    3.080167
C    20.682400    1.163002    3.075917
C    29.224535    1.163038    3.075177
C    30.653775    1.163193    3.076044
C    24.953372    1.168776    3.077120
C    22.111612    1.162988    3.076642
C    26.382640    1.168725    3.077889
C    10.006904    2.398606    3.093185
C     7.160638    2.398585    3.093296
C     5.737991    2.398869    3.081637
C    14.281248    2.399153    3.076507
C     2.886119    2.399114    3.078037
C    11.429522    2.398923    3.081818
C    31.364846    2.399243    3.079030
C     1.463422    2.399211    3.090279
C    18.548739    2.399158    3.089608
C    32.787458    2.399267    3.089760
C    15.703883    2.399213    3.089725
C    22.822583    2.398856    3.083151
C    27.090882    2.398557    3.094750
C    19.971263    2.399115    3.078592
C    28.513379    2.398917    3.081258
C    24.245070    2.398559    3.095261
C    12.140844    3.634830    3.082680
C    33.495388    3.629175    3.078141
C     3.597469    3.634964    3.079321
C    16.411675    3.629192    3.079508
C    20.682371    3.634931    3.081173
C    30.653793    3.635002    3.080855
C     0.755552    3.629190    3.079385
C     5.026596    3.634811    3.083176
C    13.569905    3.635018    3.078406
C    17.840945    3.629086    3.078955
C    29.224825    3.634951    3.084271
C    24.953261    3.628599    3.091449
C    22.111292    3.634811    3.086200
C    26.382779    3.628632    3.091738
C    27.094375    4.864961    3.094629
C    31.361733    4.865019    3.089545
C     1.466658    4.865021    3.080242
C    14.277988    4.864962    3.088258
C    18.552002    4.865010    3.079129
C    22.819093    4.864869    3.099931
C    28.516962    4.864949    3.098846
C    32.784297    4.865098    3.078512
C     2.889374    4.864942    3.089265
C    11.432912    4.864881    3.095665
C    15.700632    4.865007    3.080325
C    19.974496    4.864938    3.090140
C    24.241640    4.864943    3.094564
C     5.734605    4.864844    3.095866
C    24.953285    6.101213    3.094535
C    29.224735    6.094979    3.082288
C    33.495504    6.100870    3.079698
C    16.411704    6.100714    3.080806
C    20.682335    6.094933    3.078797
C    26.382723    6.101210    3.094813
C    30.653856    6.095030    3.078590
C     0.755538    6.100750    3.080718
C    17.840853    6.100791    3.080498
C    22.111368    6.094934    3.084098
C     3.597469    6.094870    3.076305
C    12.140773    6.094951    3.080170
C    13.569966    6.094888    3.075260
C     5.026728    6.094901    3.080738
C    24.245039    7.331175    3.097684
C    22.822573    7.331000    3.084017
C    27.090893    7.331238    3.097202
C    31.364869    7.330895    3.078622
C    18.548699    7.330718    3.089096
C    28.513369    7.331102    3.082257
C    32.787524    7.330771    3.089244
C    15.703834    7.330712    3.088357
C    19.971225    7.330829    3.078100
C     1.463513    7.330706    3.088976
C    14.281197    7.330882    3.074408
C     2.886226    7.330836    3.076111
C     5.738075    7.330969    3.080822
C    24.953269    8.560929    3.079353
C    29.224590    8.566892    3.078443
C    22.111500    8.566790    3.079775
C    26.382676    8.561007    3.080108
C    20.682422    8.566813    3.078206
C    33.495504    8.560857    3.077872
C    16.411615    8.560920    3.078294
C    30.653737    8.566819    3.078427
C    17.840850    8.560826    3.078036
C     3.597624    8.566853    3.076000
C     0.755640    8.560920    3.078818
C    13.569831    8.566910    3.074776
C    12.140613    8.566740    3.076465
C     5.026900    8.566746    3.077127
C    27.093855    9.796895    3.077808
C    24.241989    9.796882    3.076595
C    22.819493    9.796836    3.087708
C    28.516424    9.796874    3.087604
C    18.551954    9.796900    3.078424
C    31.361587    9.796855    3.088256
C    19.974639    9.796814    3.088047
C    32.784363    9.796932    3.078736
C    15.700633    9.796961    3.079704
C     1.466710    9.796939    3.080388
C    14.277844    9.796876    3.086750
C     2.889588    9.796861    3.088218
C     5.735047    9.796773    3.086653
C    10.009940    9.796779    3.074251
C    11.432557    9.796800    3.086060
C     7.157683    9.796740    3.075092
C    24.953382   11.032622    3.078365
C    26.382536   11.032547    3.079322
C    29.224486   11.026838    3.075743
C    22.111621   11.026846    3.076532
C    16.411640   11.032864    3.081012
C    20.682368   11.026789    3.075716
C    33.495605   11.032882    3.080518
C    17.840770   11.032860    3.080306
C    30.653814   11.026887    3.076431
C     0.755609   11.032848    3.081848
C     3.597511   11.026842    3.076782
C    12.140608   11.026895    3.076730
C    13.569939   11.026831    3.075201
C     7.869094   11.032561    3.078743
C     5.026903   11.026842    3.077878
C     9.298510   11.032603    3.078478
C    27.090846   12.262336    3.092163
C    24.245152   12.262396    3.092055
C    22.822677   12.262679    3.080297
C    31.364965   12.262943    3.078551
C    19.971164   12.262907    3.077213
C    28.513326   12.262682    3.079388
C    14.281183   12.262961    3.077187
C    18.548609   12.262963    3.088988
C     1.463569   12.262982    3.091129
C    15.703758   12.263014    3.089778
C    32.787612   12.262981    3.090058
C     5.738021   12.262678    3.084625
C    10.006944   12.262369    3.096456
C     2.886208   12.262927    3.079414
C    11.429534   12.262706    3.084143
C     7.160638   12.262340    3.096953
C    29.224786   13.498669    3.081022
C    16.411560   13.492990    3.078965
C    20.682413   13.498695    3.078396
C    33.495543   13.492903    3.078809
C     3.597447   13.498771    3.081534
C    13.569940   13.498817    3.079899
C    17.840822   13.492910    3.077946
C    22.111389   13.498583    3.082005
C    30.653794   13.498716    3.079083
C     0.755695   13.492970    3.080421
C    12.140900   13.498674    3.085728
C     7.868940   13.492418    3.092705
C     5.026562   13.498674    3.086859
C     9.298621   13.492408    3.092536
C    10.010330   14.728791    3.095265
C    14.277999   14.728765    3.089362
C    18.551963   14.728781    3.077452
C    31.361726   14.728736    3.088037
C     1.466665   14.728820    3.081501
C     5.734502   14.728702    3.100927
C    11.433013   14.728718    3.100234
C    15.700601   14.728797    3.080032
C    19.974538   14.728679    3.087508
C    28.516909   14.728682    3.093986
C    32.784362   14.728830    3.078613
C     2.889339   14.728737    3.091171
C     7.157229   14.728757    3.095980
C    22.819217   14.728616    3.094337
C     7.868980   15.965029    3.095639
C    12.140846   15.958764    3.083693
C    16.411634   15.964506    3.080404
C    33.495559   15.964648    3.080115
C     3.597358   15.958703    3.079069
C     9.298578   15.965074    3.095492
C    13.570002   15.958702    3.077529
C    17.840766   15.964568    3.079257
C     0.755564   15.964562    3.081835
C     5.026589   15.958736    3.084741
C    20.682387   15.958657    3.075350
C    29.224733   15.958719    3.078392
C    30.653844   15.958755    3.075917
C    22.111479   15.958680    3.079508
C     7.160577   17.195018    3.099384
C     5.737956   17.194823    3.085561
C    10.006985   17.195052    3.098849
C    14.281230   17.194666    3.076825
C     1.463481   17.194545    3.090657
C    11.429572   17.194851    3.085147
C    15.703821   17.194516    3.089325
C    32.787531   17.194583    3.088855
C     2.886136   17.194662    3.078925
C    18.548657   17.194488    3.087784
C    31.364902   17.194694    3.076598
C    19.971226   17.194605    3.075390
C    22.822671   17.194730    3.079520
C     7.868959   18.424771    3.081004
C    12.140710   18.430597    3.080118
C     5.026765   18.430591    3.081160
C     9.298556   18.424749    3.080697
C     3.597470   18.430618    3.079209
C    16.411627   18.424705    3.079043
C    33.495451   18.424713    3.078048
C    13.569932   18.430670    3.077798
C     0.755573   18.424721    3.079888
C    20.682492   18.430597    3.075510
C    17.840863   18.424641    3.077722
C    30.653709   18.430650    3.076130
C    29.224561   18.430612    3.075377
C    22.111618   18.430485    3.076313
C    10.009942   19.660682    3.077742
C     7.157622   19.660707    3.078684
C     5.734955   19.660621    3.089407
C    11.432572   19.660661    3.088736
C     1.466584   19.660745    3.081109
C    14.277888   19.660623    3.088221
C     2.889432   19.660570    3.089599
C    15.700652   19.660727    3.080430
C    32.784296   19.660801    3.078259
C    18.551992   19.660698    3.077840
C    31.361545   19.660742    3.086981
C    19.974684   19.660602    3.086805
C    22.819542   19.660513    3.085114
C    27.093915   19.660552    3.074365
C    28.516466   19.660589    3.084963
C    24.242055   19.660509    3.073133
