576       
Geometry optimisation iteration:     2
Li    0.019168   19.650981    8.687069
Li    0.019236   14.717660    8.687578
Li    0.019167    9.783214    8.686924
Li    0.019169    4.853476    8.686027
Li    4.304365   17.180408    8.687041
Li    4.304843   12.252191    8.688192
Li    4.307337    7.319122    8.683233
Li    4.305997    2.389996    8.685771
Li    8.591524    4.856374    8.675639
Li    8.591641    9.778992    8.681209
Li    8.591711   14.717535    8.687124
Li    8.591599   19.652932    8.686847
Li   12.875827   17.180168    8.685221
Li   12.875377   12.252291    8.686312
Li   12.871886    7.319544    8.682108
Li   12.873428    2.389727    8.684833
Li   17.149729   19.650281    8.686518
Li   17.149797   14.717613    8.685464
Li   17.150022    9.783922    8.686429
Li   17.150018    4.853448    8.687053
Li   21.411015   17.178774    8.681888
Li   21.408462   12.254455    8.684962
Li   21.406374    7.320763    8.686028
Li   21.406700    2.387742    8.686890
Li   25.653459   19.646087    8.680142
Li   25.653414   14.720306    8.674463
Li   25.653460    9.785731    8.685753
Li   25.653504    4.853327    8.686152
Li   29.907683   17.179154    8.681489
Li   29.909571   12.254086    8.684594
Li   29.912180    7.320467    8.684932
Li   29.911719    2.388031    8.685568
C    10.018404    4.869419    6.817052
C     7.151266    4.869380    6.817956
C     7.869986    6.108890    6.816970
C     9.299565    6.108986    6.817104
C    27.100185   14.733211    6.817663
C    24.235128   14.733167    6.817692
C    24.953509   15.972800    6.816959
C    26.382193   15.972685    6.817474
C     7.869698    3.629324    6.817769
C     9.299869    3.629292    6.817863
C    11.424218    7.335581    6.823479
C    10.010047    7.335226    6.818973
C     7.159585    7.335220    6.818095
C     7.869810    8.561551    6.823227
C     9.299852    8.561522    6.823293
C    24.953159   13.493010    6.817663
C    26.382394   13.493268    6.818041
C    28.505177   17.199387    6.822332
C    27.091381   17.199128    6.819001
C    24.244139   17.199043    6.818244
C    24.953245   18.425312    6.823267
C    26.382440   18.425578    6.823612
C     7.870019    1.176716    6.822779
C     9.299482    1.176842    6.822906
C    12.142320    1.163693    6.827438
C     5.026864    1.163480    6.828099
C    33.494420    1.177322    6.826007
C     3.596961    1.163574    6.828646
C    16.413851    1.177043    6.826792
C     0.754316    1.177078    6.826727
C    13.571961    1.163672    6.827801
C    17.842601    1.177139    6.826574
C    20.683754    1.163500    6.829657
C    29.223114    1.163521    6.826607
C    30.652465    1.163927    6.828038
C    24.953565    1.177008    6.821117
C    22.112834    1.163398    6.828417
C    26.382010    1.176913    6.821239
C    10.010078    2.402966    6.817332
C     7.159504    2.402912    6.816537
C     5.745173    2.403316    6.823589
C    14.290312    2.403676    6.825825
C     2.878501    2.403562    6.827382
C    11.424252    2.403458    6.824125
C    31.370209    2.403642    6.827372
C     1.464347    2.403369    6.824157
C    18.552263    2.403200    6.825295
C    32.784152    2.403433    6.823315
C    15.704299    2.403363    6.823784
C    22.830671    2.403345    6.827159
C    27.091098    2.403213    6.821508
C    19.965987    2.403351    6.829703
C    28.504835    2.403558    6.826018
C    24.244255    2.403080    6.821552
C    12.142670    3.642803    6.821783
C    33.494202    3.629635    6.828067
C     3.597198    3.642970    6.824131
C    16.413466    3.629860    6.829814
C    20.684042    3.642710    6.827234
C    30.652084    3.642884    6.825512
C     0.754736    3.629922    6.828710
C     5.026568    3.642756    6.822332
C    13.571769    3.643125    6.823467
C    17.842805    3.629483    6.829706
C    29.223277    3.643133    6.825081
C    24.953206    3.629368    6.828164
C    22.112581    3.642785    6.827136
C    26.382266    3.629654    6.828181
C    27.099791    4.869476    6.827545
C    31.361727    4.869406    6.822473
C     1.472702    4.869698    6.826747
C    14.281893    4.869339    6.821570
C    18.560872    4.869617    6.827405
C    22.821688    4.869139    6.824705
C    28.513480    4.869304    6.822781
C    32.775849    4.869800    6.826362
C     2.886817    4.869250    6.821342
C    11.432699    4.869192    6.816851
C    15.695749    4.869683    6.828257
C    19.974753    4.869177    6.823691
C    24.235305    4.869350    6.828339
C     5.736906    4.869086    6.817702
C    24.953463    6.108815    6.827109
C    29.223003    6.095607    6.827167
C    33.494607    6.109360    6.824923
C    16.413665    6.108971    6.826345
C    20.683651    6.095769    6.828738
C    26.381940    6.108715    6.827157
C    30.652444    6.096078    6.827151
C     0.754522    6.109005    6.825265
C    17.842409    6.109203    6.826529
C    22.112781    6.095593    6.829050
C     3.596974    6.095568    6.825064
C    12.142391    6.095767    6.823364
C    13.572038    6.095629    6.824264
C     5.026917    6.095609    6.823948
C    24.244101    7.334940    6.824989
C    22.830500    7.335512    6.827911
C    27.091102    7.335029    6.824955
C    31.370318    7.335848    6.826278
C    18.552124    7.335310    6.824398
C    28.504846    7.335623    6.826893
C    32.784275    7.335447    6.822626
C    15.704118    7.335287    6.822032
C    19.965829    7.335682    6.828384
C     1.464561    7.335292    6.822400
C    14.290190    7.335674    6.823063
C     2.878697    7.335591    6.824623
C     5.745273    7.335501    6.822788
C    24.953117    8.561190    6.829870
C    29.223488    8.575108    6.825088
C    22.112302    8.574885    6.827010
C    26.382239    8.561438    6.829969
C    20.683830    8.575003    6.826929
C    33.494322    8.561638    6.828339
C    16.413351    8.561781    6.828570
C    30.652256    8.575031    6.825353
C    17.842699    8.561573    6.828939
C     3.597447    8.575000    6.822846
C     0.754846    8.561794    6.828402
C    13.571590    8.575154    6.821976
C    12.142535    8.574963    6.821658
C     5.026750    8.574910    6.822293
C    27.099930    9.801202    6.827401
C    24.235140    9.801146    6.827827
C    22.821498    9.801033    6.824661
C    28.513674    9.801107    6.823114
C    18.560807    9.801620    6.827258
C    31.361930    9.801361    6.823683
C    19.974545    9.801262    6.824339
C    32.775940    9.801684    6.827560
C    15.695575    9.801588    6.827825
C     1.472877    9.801602    6.827378
C    14.281705    9.801287    6.822128
C     2.887042    9.801184    6.822324
C     5.737270    9.801077    6.820463
C    10.018175    9.801557    6.821504
C    11.432376    9.801235    6.819244
C     7.151537    9.801497    6.822725
C    24.953427   11.040503    6.822780
C    26.381985   11.040394    6.823102
C    29.223359   11.027240    6.827178
C    22.112488   11.027317    6.828423
C    16.413667   11.040776    6.826433
C    20.683408   11.027620    6.829242
C    33.494700   11.041081    6.826190
C    17.842374   11.041056    6.826279
C    30.652729   11.027822    6.828272
C     0.754552   11.040747    6.826821
C     3.597334   11.027375    6.829110
C    12.142039   11.027666    6.827009
C    13.571747   11.027474    6.827745
C     7.870179   11.040720    6.820986
C     5.027289   11.027450    6.828356
C     9.299442   11.040854    6.820703
C    27.091291   12.266703    6.817311
C    24.244039   12.266656    6.816733
C    22.830363   12.267188    6.823558
C    31.370507   12.267493    6.826963
C    19.965704   12.267436    6.827995
C    28.505126   12.267247    6.823532
C    14.290124   12.267463    6.826671
C    18.552033   12.267164    6.824117
C     1.464571   12.267085    6.824911
C    15.704172   12.267148    6.823381
C    32.784418   12.267169    6.823613
C     5.745605   12.267233    6.827562
C    10.009812   12.267012    6.821103
C     2.878807   12.267264    6.829086
C    11.423941   12.267404    6.827033
C     7.159865   12.266937    6.821187
C    29.223759   13.506819    6.821869
C    16.413475   13.493699    6.828477
C    20.683666   13.506692    6.824918
C    33.494291   13.493472    6.829115
C     3.597586   13.506730    6.827150
C    13.571401   13.506964    6.825424
C    17.842767   13.493465    6.828168
C    22.112198   13.506641    6.822786
C    30.652575   13.506677    6.824311
C     0.754755   13.493614    6.829896
C    12.142186   13.506741    6.825814
C     7.869865   13.493376    6.827895
C     5.027052   13.506621    6.827373
C     9.299738   13.493369    6.827553
C    10.018025   14.733382    6.827033
C    14.281680   14.733178    6.822646
C    18.560817   14.733505    6.825750
C    31.362044   14.733123    6.821684
C     1.472706   14.733507    6.828223
C     5.737365   14.732930    6.824531
C    11.432193   14.733131    6.822904
C    15.695706   14.733552    6.827342
C    19.974530   14.733004    6.821709
C    28.513964   14.732936    6.817265
C    32.775958   14.733556    6.827201
C     2.886969   14.733007    6.823749
C     7.151584   14.733267    6.828439
C    22.821444   14.732828    6.818207
C     7.870117   15.972656    6.826762
C    12.141951   15.959654    6.827409
C    16.413814   15.972911    6.825424
C    33.494490   15.973100    6.825749
C     3.597189   15.959393    6.828364
C     9.299395   15.972811    6.826494
C    13.571765   15.959537    6.826611
C    17.842542   15.973033    6.824960
C     0.754329   15.972889    6.826839
C     5.027253   15.959368    6.828888
C    20.683444   15.959383    6.825398
C    29.223455   15.959223    6.822850
C    30.652849   15.959693    6.824615
C    22.112560   15.959223    6.823845
C     7.159686   17.198909    6.824279
C     5.745422   17.199291    6.827892
C    10.009832   17.199020    6.824398
C    14.290189   17.199648    6.825277
C     1.464409   17.199232    6.824134
C    11.423997   17.199507    6.827556
C    15.704235   17.199283    6.822590
C    32.784212   17.199234    6.821795
C     2.878634   17.199481    6.827668
C    18.552262   17.199100    6.822582
C    31.370369   17.199493    6.823801
C    19.965903   17.199267    6.825103
C    22.830483   17.199215    6.822357
C     7.869735   18.425261    6.829499
C    12.142456   18.438666    6.825382
C     5.026712   18.438504    6.826691
C     9.299686   18.425248    6.829353
C     3.597396   18.438791    6.826335
C    16.413533   18.425746    6.828835
C    33.494134   18.425450    6.827970
C    13.571524   18.439021    6.824949
C     0.754616   18.425698    6.829164
C    20.683905   18.438483    6.823330
C    17.842890   18.425351    6.828197
C    30.652366   18.438652    6.822298
C    29.223656   18.438910    6.821164
C    22.112346   18.438570    6.822336
C    10.018200   19.665086    6.826786
C     7.151323   19.664990    6.827838
C     5.737020   19.664695    6.823997
C    11.432452   19.664871    6.822858
C     1.472631   19.665361    6.828142
C    14.281800   19.665067    6.823752
C     2.886832   19.664911    6.823941
C    15.695734   19.665450    6.828519
C    32.775765   19.665479    6.826842
C    18.561014   19.665294    6.826590
C    31.361780   19.665026    6.821993
C    19.974757   19.664754    6.822678
C    22.821691   19.664677    6.820708
C    27.099988   19.665356    6.821981
C    28.513687   19.664917    6.819370
C    24.235312   19.665226    6.822487
Li    0.026350   19.639960    4.965296
Li    0.026303   14.707485    4.965562
Li    0.026408    9.774059    4.965141
Li    0.026436    4.842789    4.964388
Li    4.306186   17.172399    4.965459
Li    4.306392   12.241371    4.966010
Li    4.306234    7.310243    4.960940
Li    4.306480    2.376426    4.963304
Li    8.586922    4.841810    4.955555
Li    8.586739    9.774117    4.959241
Li    8.586668   14.707493    4.965210
Li    8.586760   19.640437    4.964207
Li   12.865759   17.172466    4.963832
Li   12.865792   12.241235    4.964373
Li   12.865837    7.310335    4.960055
Li   12.865549    2.376510    4.962489
Li   17.139010   19.640122    4.965104
Li   17.138931   14.707397    4.964108
Li   17.138753    9.773864    4.965112
Li   17.138749    4.842608    4.965564
Li   21.400488   17.172094    4.960720
Li   21.400709   12.241726    4.963310
Li   21.400440    7.310390    4.965238
Li   21.400576    2.376071    4.965677
Li   25.656234   19.640433    4.959099
Li   25.656346   14.706592    4.955330
Li   25.656316    9.774274    4.963981
Li   25.656082    4.842577    4.965094
Li   29.920184   17.172208    4.959880
Li   29.919889   12.241750    4.962603
Li   29.920232    7.310507    4.963688
Li   29.920184    2.376218    4.963930
C    10.010495    4.865764    3.093389
C     7.157044    4.865703    3.093597
C     7.868981    6.101941    3.097048
C     9.298495    6.101993    3.096698
C    27.094526   14.729501    3.093917
C    24.241527   14.729488    3.091063
C    24.953422   15.965719    3.095887
C    26.382787   15.965677    3.097148
C     7.868849    3.629220    3.089713
C     9.298656    3.629247    3.089303
C    11.429110    7.332048    3.096058
C    10.006834    7.331932    3.107592
C     7.160668    7.331870    3.106912
C     7.868902    8.561740    3.092960
C     9.298566    8.561745    3.092647
C    24.953236   13.493004    3.088457
C    26.382876   13.493106    3.089731
C    28.512961   17.195837    3.092710
C    27.090824   17.195710    3.106851
C    24.245351   17.195635    3.105548
C    24.953341   18.425471    3.092344
C    26.382870   18.425607    3.093708
C     7.869040    1.169459    3.096687
C     9.298348    1.169497    3.096307
C    12.140663    1.163473    3.094999
C     5.026657    1.163344    3.095060
C    33.495476    1.170267    3.099696
C     3.597129    1.163482    3.095831
C    16.411896    1.170132    3.101168
C     0.755313    1.170109    3.101336
C    13.570164    1.163616    3.094525
C    17.840906    1.170103    3.099440
C    20.682565    1.163695    3.096338
C    29.224328    1.163860    3.092746
C    30.653711    1.163981    3.095871
C    24.953499    1.170196    3.094363
C    22.111896    1.163724    3.094546
C    26.382581    1.170157    3.095370
C    10.006828    2.399345    3.104282
C     7.160646    2.399295    3.103753
C     5.738312    2.399544    3.095659
C    14.281924    2.399916    3.096150
C     2.885398    2.399804    3.097340
C    11.429137    2.399670    3.095694
C    31.365131    2.400150    3.099934
C     1.463365    2.399909    3.109882
C    18.548976    2.399841    3.108940
C    32.787245    2.400021    3.108776
C    15.703923    2.399925    3.108775
C    22.823486    2.399882    3.097058
C    27.090487    2.399947    3.105767
C    19.971061    2.399886    3.098918
C    28.512527    2.400066    3.094408
C    24.245489    2.399832    3.105235
C    12.140922    3.635736    3.097451
C    33.495354    3.629772    3.095369
C     3.597213    3.635789    3.098477
C    16.411672    3.629809    3.097414
C    20.682759    3.635839    3.100946
C    30.653380    3.636062    3.100597
C     0.755560    3.629870    3.096978
C     5.026460    3.635596    3.097564
C    13.570114    3.635916    3.097090
C    17.841008    3.629640    3.095941
C    29.224224    3.636138    3.098749
C    24.953329    3.629562    3.094697
C    22.111863    3.635821    3.100372
C    26.382631    3.629727    3.095674
C    27.094032    4.865919    3.099417
C    31.361551    4.866044    3.108409
C     1.467069    4.866049    3.099297
C    14.278226    4.865858    3.106747
C    18.552550    4.866026    3.097156
C    22.819778    4.865725    3.108674
C    28.516097    4.865913    3.107939
C    32.783755    4.866221    3.096023
C     2.889103    4.865753    3.107518
C    11.432767    4.865681    3.105647
C    15.700262    4.866069    3.098946
C    19.974693    4.865816    3.108066
C    24.241777    4.865813    3.097028
C     5.734738    4.865547    3.106324
C    24.953401    6.101793    3.100268
C    29.224092    6.095720    3.094607
C    33.495617    6.102315    3.098829
C    16.411740    6.102077    3.100697
C    20.682536    6.095744    3.096343
C    26.382461    6.101759    3.101201
C    30.653581    6.095992    3.096034
C     0.755529    6.102072    3.100155
C    17.840777    6.102136    3.099507
C    22.111947    6.095609    3.096155
C     3.597157    6.095593    3.093256
C    12.140760    6.095714    3.093368
C    13.570252    6.095732    3.091732
C     5.026694    6.095576    3.093534
C    24.245355    7.331441    3.108497
C    22.823369    7.331764    3.098057
C    27.090478    7.331520    3.109028
C    31.365188    7.332176    3.099177
C    18.548854    7.331912    3.108371
C    28.512498    7.331938    3.095572
C    32.787360    7.332079    3.108102
C    15.703773    7.331936    3.107218
C    19.970932    7.331980    3.098083
C     1.463615    7.331919    3.108300
C    14.281816    7.332130    3.093534
C     2.885636    7.332020    3.094874
C     5.738394    7.331935    3.095949
C    24.953250    8.561105    3.095827
C    29.224496    8.567891    3.098254
C    22.111563    8.567675    3.099722
C    26.382657    8.561242    3.096831
C    20.682534    8.567878    3.100469
C    33.495545    8.561797    3.095444
C    16.411560    8.561821    3.096572
C    30.653575    8.568008    3.100237
C    17.840853    8.561719    3.095483
C     3.597487    8.568060    3.096861
C     0.755731    8.561823    3.096582
C    13.569910    8.568175    3.095433
C    12.140762    8.568130    3.096582
C     5.026685    8.568012    3.096643
C    27.094248    9.797389    3.097980
C    24.241574    9.797327    3.095487
C    22.819498    9.797383    3.107402
C    28.516386    9.797493    3.106928
C    18.552465    9.797929    3.097347
C    31.361799    9.797784    3.109218
C    19.974442    9.797627    3.108571
C    32.783838    9.798011    3.097012
C    15.700080    9.798047    3.098956
C     1.467262    9.798004    3.099948
C    14.278012    9.797912    3.107240
C     2.889363    9.797811    3.108177
C     5.735067    9.797812    3.106398
C    10.010273    9.798072    3.093740
C    11.432443    9.797920    3.105494
C     7.157259    9.798074    3.094099
C    24.953380   11.033258    3.095970
C    26.382560   11.033214    3.097200
C    29.224593   11.027173    3.093545
C    22.111513   11.027132    3.094464
C    16.411646   11.033916    3.101401
C    20.682128   11.027354    3.096376
C    33.495726   11.034000    3.100135
C    17.840669   11.033928    3.099887
C    30.654037   11.027556    3.096532
C     0.755593   11.033869    3.101700
C     3.597570   11.027509    3.096507
C    12.140373   11.027753    3.095278
C    13.569823   11.027624    3.094751
C     7.869113   11.034031    3.096144
C     5.027038   11.027631    3.095939
C     9.298347   11.034034    3.095541
C    27.090765   12.263104    3.103564
C    24.245238   12.263097    3.102273
C    22.823064   12.263345    3.093980
C    31.365607   12.263739    3.099365
C    19.970604   12.263613    3.097742
C    28.512958   12.263464    3.092524
C    14.281494   12.263871    3.097286
C    18.548641   12.263691    3.108565
C     1.463760   12.263695    3.110765
C    15.703585   12.263768    3.109041
C    32.787610   12.263732    3.109016
C     5.738745   12.263775    3.099240
C    10.006566   12.263742    3.107478
C     2.885876   12.263732    3.098918
C    11.428683   12.263881    3.098465
C     7.160874   12.263712    3.107515
C    29.224893   13.499618    3.095354
C    16.411533   13.493640    3.096732
C    20.682233   13.499603    3.098160
C    33.495547   13.493565    3.096008
C     3.597751   13.499784    3.100647
C    13.569556   13.499941    3.098897
C    17.840873   13.493574    3.094941
C    22.111311   13.499447    3.096130
C    30.654025   13.499656    3.098446
C     0.755730   13.493567    3.097901
C    12.140313   13.499869    3.100588
C     7.868977   13.493475    3.096226
C     5.027004   13.499744    3.101183
C     9.298448   13.493511    3.095604
C    10.010059   14.729735    3.098616
C    14.277844   14.729831    3.107780
C    18.552426   14.729862    3.095509
C    31.361954   14.729666    3.106692
C     1.467164   14.729880    3.100230
C     5.735199   14.729588    3.110168
C    11.432181   14.729709    3.109053
C    15.700102   14.729952    3.098446
C    19.974394   14.729560    3.105726
C    28.516771   14.729474    3.103929
C    32.783960   14.729899    3.096014
C     2.889412   14.729676    3.108931
C     7.157362   14.729662    3.099252
C    22.819335   14.729353    3.104044
C     7.869062   15.965588    3.101545
C    12.140195   15.959575    3.096312
C    16.411762   15.965974    3.100202
C    33.495618   15.965998    3.099252
C     3.597544   15.959533    3.095842
C     9.298244   15.965634    3.100882
C    13.569728   15.959677    3.094181
C    17.840818   15.965919    3.098302
C     0.755467   15.965908    3.101147
C     5.027088   15.959436    3.096856
C    20.682171   15.959440    3.093089
C    29.224733   15.959400    3.091098
C    30.654148   15.959607    3.093101
C    22.111558   15.959360    3.092172
C     7.160748   17.195287    3.110714
C     5.738628   17.195611    3.100186
C    10.006581   17.195324    3.110552
C    14.281573   17.195972    3.096605
C     1.463610   17.195778    3.110036
C    11.428703   17.195745    3.099399
C    15.703702   17.195855    3.108538
C    32.787451   17.195778    3.107680
C     2.885741   17.195844    3.098002
C    18.548863   17.195707    3.107284
C    31.365481   17.195918    3.096824
C    19.970796   17.195799    3.095450
C    22.823217   17.195707    3.094310
C     7.868874   18.424939    3.097722
C    12.140567   18.431612    3.100599
C     5.026711   18.431475    3.101173
C     9.298427   18.424953    3.096986
C     3.597525   18.431758    3.100711
C    16.411673   18.425688    3.097525
C    33.495377   18.425572    3.095758
C    13.569746   18.431887    3.099247
C     0.755541   18.425640    3.097801
C    20.682477   18.431736    3.097406
C    17.841019   18.425522    3.095334
C    30.653822   18.431859    3.097387
C    29.224721   18.431977    3.095046
C    22.111553   18.431725    3.095974
C    10.010244   19.661169    3.097320
C     7.157134   19.661123    3.097883
C     5.734915   19.661161    3.109268
C    11.432433   19.661280    3.108304
C     1.467026   19.661743    3.100791
C    14.278130   19.661555    3.109147
C     2.889105   19.661422    3.109845
C    15.700213   19.661801    3.099859
C    32.783705   19.661884    3.096567
C    18.552664   19.661731    3.096628
C    31.361694   19.661736    3.107570
C    19.974631   19.661531    3.106964
C    22.819678   19.661494    3.104566
C    27.094321   19.661858    3.094544
C    28.516415   19.661693    3.104136
C    24.241724   19.661760    3.091874
