640       
Geometry optimisation iteration:     6
Li    0.032156   19.673306    8.613371
Li    0.031756   14.740754    8.614510
Li    0.032064    9.808229    8.613495
Li    0.032100    4.877035    8.613036
Li    0.031479   17.206456    8.615001
Li    0.031748   12.275712    8.615459
Li    0.031827    7.343172    8.612899
Li    0.031769    2.410915    8.614870
Li    4.309319   19.673884    8.615020
Li    4.309204   14.740949    8.615274
Li    4.309150    9.808371    8.614830
Li    4.309252    4.877451    8.613605
Li    4.309584   17.206348    8.614131
Li    4.309503   12.275156    8.615004
Li    4.309651    7.342858    8.611893
Li    4.309327    2.410592    8.614610
Li    8.590146    4.877844    8.598635
Li    8.590256    9.807580    8.609969
Li    8.590124   14.740718    8.613838
Li    8.589942   19.672935    8.615127
Li    8.589785   17.206516    8.615207
Li    8.589953   12.275385    8.616076
Li    8.590109    7.343548    8.610368
Li    8.590663    2.412127    8.615668
Li   12.869422   17.206346    8.612460
Li   12.869270   12.275475    8.613017
Li   12.868939    7.343229    8.611097
Li   12.868640    2.410995    8.614698
Li   12.869065   19.673418    8.614495
Li   12.869304   14.740803    8.614879
Li   12.868994    9.808327    8.614831
Li   12.869065    4.876996    8.614117
Li   17.142742   19.673351    8.613481
Li   17.142757   14.740787    8.612908
Li   17.142871    9.808485    8.613533
Li   17.142597    4.877225    8.614766
Li   17.142955   17.206368    8.614649
Li   17.142980   12.275656    8.615308
Li   17.142671    7.343111    8.613410
Li   17.142953    2.410709    8.615167
Li   21.408498   17.206413    8.611180
Li   21.407555   12.275630    8.613860
Li   21.407704    7.343351    8.613734
Li   21.407682    2.410939    8.614751
Li   21.408228   19.673178    8.614250
Li   21.408231   14.740697    8.613900
Li   21.408463    9.808415    8.614620
Li   21.408491    4.876999    8.613750
Li   25.667872   19.672905    8.608980
Li   25.667920   14.741529    8.597670
Li   25.667551    9.808064    8.614400
Li   25.667560    4.877292    8.613232
Li   25.667608   17.206516    8.611306
Li   25.668322   12.277038    8.615397
Li   25.667656    7.343040    8.612779
Li   25.667688    2.410360    8.614940
Li   29.929944   17.206617    8.610316
Li   29.929687   12.275600    8.613839
Li   29.930451    7.343072    8.612049
Li   29.930421    2.410872    8.612840
Li   29.930235   19.673306    8.614320
Li   29.930302   14.740542    8.614618
Li   29.930338    9.808439    8.614071
Li   29.930464    4.877195    8.613401
Li    2.169652   18.439464    8.614803
Li    2.169953   13.507052    8.615094
Li    2.169984    8.575463    8.615276
Li    2.169653    3.644194    8.614620
Li    2.169772   15.974107    8.614784
Li    2.169546   11.042004    8.616081
Li    2.169878    6.109297    8.613863
Li    2.169794    1.177969    8.615378
Li    6.449802   18.439593    8.615487
Li    6.449843   13.507283    8.615347
Li    6.449695    8.575954    8.613121
Li    6.450255    3.644690    8.613085
Li    6.449851   15.973869    8.615053
Li    6.449950   11.041841    8.616308
Li    6.450089    6.108911    8.611156
Li    6.449654    1.177691    8.615167
Li   10.729336    3.645386    8.601613
Li   10.729849    8.575469    8.609882
Li   10.729872   13.507369    8.614140
Li   10.730233   18.439260    8.616159
Li   10.730149   15.973809    8.614518
Li   10.730204   11.041597    8.616127
Li   10.730174    6.109020    8.611763
Li   10.730132    1.178676    8.615634
Li   15.006408   15.973948    8.613006
Li   15.006501   11.042041    8.614088
Li   15.005616    6.109441    8.613241
Li   15.006285    1.177790    8.614428
Li   15.006570   18.439505    8.614409
Li   15.006561   13.507165    8.614542
Li   15.006342    8.575651    8.615064
Li   15.006569    3.644144    8.614349
Li   19.275580   18.439466    8.614688
Li   19.275213   13.507542    8.613719
Li   19.275368    8.576027    8.614259
Li   19.275543    3.644323    8.614863
Li   19.276235   15.973744    8.614832
Li   19.275978   11.042076    8.615586
Li   19.275905    6.109252    8.612788
Li   19.275923    1.177469    8.614885
Li   23.537447   15.973844    8.610024
Li   23.536501   11.041927    8.614289
Li   23.536784    6.109367    8.614534
Li   23.536893    1.177963    8.615416
Li   23.537551   18.439588    8.612143
Li   23.538241   13.507429    8.613213
Li   23.537810    8.575811    8.614707
Li   23.537745    3.644204    8.613718
Li   27.796985   18.439328    8.609285
Li   27.796319   13.508701    8.600701
Li   27.796971    8.575540    8.615751
Li   27.796972    3.644436    8.614008
Li   27.797005   15.973485    8.612946
Li   27.797315   11.042885    8.615744
Li   27.797321    6.109117    8.612540
Li   27.797031    1.177236    8.614956
Li   32.062993   15.974030    8.612979
Li   32.063655   11.041882    8.614521
Li   32.063800    6.109300    8.613245
Li   32.063919    1.177888    8.614055
Li   32.063696   18.439332    8.615143
Li   32.064066   13.507249    8.615158
Li   32.064164    8.575827    8.614333
Li   32.064101    3.644177    8.613742
C    22.108184    1.163434    3.338176
C    26.379655    1.163435    3.338522
C    30.650977    1.163436    3.338735
C     6.446125    1.163402    3.339550
C    10.717062    1.163402    3.339710
C     2.175189    1.163428    3.339410
C    14.988084    1.163384    3.339375
C    19.259355    1.163431    3.339087
C    23.530789    1.163432    3.339282
C    27.802224    1.163462    3.339705
C    32.073445    1.163457    3.339720
C     0.752769    1.163411    3.338406
C     5.023708    1.163391    3.338484
C     9.294636    1.163438    3.338643
C    13.565611    1.163404    3.338593
C    17.836805    1.163430    3.338056
C    15.701171    2.396380    3.338180
C    19.972477    2.396405    3.337894
C    24.243918    2.396414    3.338309
C     4.310682    2.396387    3.339604
C    28.515343    2.396425    3.338782
C     0.039718    2.396390    3.339667
C     8.581599    2.396409    3.339389
C    12.852561    2.396392    3.339528
C    17.123712    2.396398    3.338985
C    21.395067    2.396425    3.338944
C    25.666520    2.396416    3.339524
C    29.937888    2.396433    3.339796
C    32.786474    2.396426    3.338737
C     2.888225    2.396388    3.338637
C     7.159153    2.396389    3.338455
C    11.430093    2.396376    3.338504
C    13.565599    3.629366    3.338340
C    17.836818    3.629357    3.337762
C     2.175193    3.629369    3.339791
C    22.108190    3.629378    3.337833
C    26.379660    3.629377    3.338508
C     6.446136    3.629376    3.339252
C    10.717034    3.629376    3.339130
C    14.988096    3.629378    3.339225
C    19.259365    3.629374    3.338740
C    23.530793    3.629381    3.339071
C    27.802227    3.629386    3.339685
C    30.650967    3.629405    3.338783
C     0.752766    3.629378    3.338746
C     5.023721    3.629368    3.338508
C    32.073438    3.629397    3.339788
C     9.294616    3.629375    3.337923
C     0.039726    4.862359    3.339794
C    11.430062    4.862350    3.337996
C    15.701192    4.862362    3.338042
C    19.972492    4.862336    3.337624
C    24.243925    4.862335    3.338027
C     4.310675    4.862350    3.339586
C     8.581573    4.862347    3.338579
C    12.852511    4.862342    3.339199
C    17.123713    4.862336    3.338769
C    21.395067    4.862339    3.338662
C    25.666515    4.862342    3.339261
C    28.515361    4.862335    3.338613
C    29.937876    4.862374    3.339716
C    32.786507    4.862347    3.338746
C     2.888257    4.862340    3.338773
C     7.159177    4.862345    3.337772
C     9.294593    6.095310    3.337416
C    13.565589    6.095318    3.338188
C    17.836842    6.095303    3.337711
C    22.108201    6.095307    3.337703
C    32.073449    6.095317    3.339709
C     2.175212    6.095315    3.339782
C     6.446147    6.095316    3.338851
C    10.717021    6.095328    3.338708
C    14.988104    6.095349    3.339181
C    19.259406    6.095315    3.338648
C    23.530781    6.095314    3.338928
C    26.379627    6.095306    3.338328
C    27.802207    6.095288    3.339504
C    30.650959    6.095329    3.338615
C     0.752774    6.095328    3.338741
C     5.023718    6.095319    3.338248
C     7.159163    7.328281    3.337709
C    11.430065    7.328290    3.337926
C    15.701210    7.328307    3.338147
C    19.972503    7.328268    3.337728
C    29.937850    7.328276    3.339541
C     0.039746    7.328295    3.339621
C     4.310683    7.328296    3.339379
C     8.581577    7.328284    3.338528
C    12.852530    7.328299    3.339215
C    17.123753    7.328281    3.338930
C    21.395075    7.328255    3.338774
C    25.666502    7.328264    3.339364
C    24.243917    7.328251    3.338157
C    28.515303    7.328249    3.338517
C    32.786501    7.328273    3.338611
C     2.888256    7.328284    3.338600
C     5.023725    8.561277    3.338247
C     9.294596    8.561273    3.337830
C    13.565590    8.561285    3.338423
C    17.836825    8.561269    3.337955
C    27.802206    8.561244    3.339633
C    32.073465    8.561254    3.339495
C     2.175230    8.561279    3.339507
C     6.446119    8.561269    3.339045
C    10.717023    8.561282    3.339097
C    23.530778    8.561250    3.339271
C    14.988087    8.561285    3.339332
C    19.259383    8.561252    3.338939
C    22.108207    8.561244    3.338072
C    26.379632    8.561238    3.338564
C    30.650977    8.561235    3.338482
C     0.752804    8.561265    3.338432
C     7.159146    9.794251    3.338134
C    11.430085    9.794261    3.338522
C    15.701175    9.794256    3.338381
C    25.666493    9.794234    3.339625
C    29.937872    9.794209    3.339559
C     0.039764    9.794246    3.339222
C     4.310687    9.794264    3.339267
C    21.395078    9.794249    3.339320
C     8.581570    9.794267    3.339126
C    12.852549    9.794277    3.339663
C    17.123717    9.794256    3.339212
C    19.972499    9.794234    3.338200
C    24.243908    9.794249    3.338563
C    28.515316    9.794229    3.338667
C    32.786513    9.794228    3.338320
C     2.888267    9.794263    3.338259
C     5.023703   11.027246    3.338152
C     9.294604   11.027248    3.338454
C    13.565586   11.027251    3.338734
C    23.530789   11.027222    3.339601
C    27.802210   11.027224    3.339620
C    19.259368   11.027207    3.339449
C    32.073478   11.027210    3.339312
C     2.175245   11.027249    3.338996
C     6.446125   11.027245    3.339259
C    10.717050   11.027245    3.339666
C    14.988085   11.027223    3.339645
C    17.836793   11.027234    3.338382
C    22.108198   11.027208    3.338533
C    26.379624   11.027209    3.338619
C    30.650967   11.027174    3.338439
C     0.752812   11.027214    3.337997
C    32.786549   12.260183    3.338135
C     2.888277   12.260216    3.337817
C     7.159160   12.260219    3.338295
C    21.395060   12.260210    3.339657
C    11.430092   12.260212    3.338821
C    17.123654   12.260206    3.339613
C    25.666524   12.260209    3.339412
C    29.937869   12.260168    3.339379
C     0.039785   12.260191    3.338963
C     4.310676   12.260229    3.338914
C     8.581570   12.260223    3.339483
C    12.852530   12.260229    3.339813
C    15.701148   12.260193    3.338670
C    19.972464   12.260191    3.338698
C    24.243936   12.260212    3.338489
C    28.515339   12.260200    3.338381
C    30.650964   13.493160    3.338292
C     0.752819   13.493163    3.337766
C    19.259335   13.493187    3.339876
C     5.023713   13.493206    3.337843
C     9.294628   13.493187    3.338498
C    23.530810   13.493198    3.339343
C    27.802195   13.493181    3.339059
C    32.073469   13.493159    3.339210
C     2.175238   13.493189    3.338683
C     6.446121   13.493208    3.339061
C    10.717059   13.493184    3.339749
C    13.565594   13.493185    3.338842
C    17.836771   13.493175    3.338746
C    22.108197   13.493193    3.338581
C    14.988069   13.493179    3.339827
C    26.379636   13.493197    3.337943
C    17.123665   14.726145    3.339819
C    28.515303   14.726143    3.337929
C    32.786519   14.726124    3.338080
C     2.888257   14.726144    3.337587
C     7.159155   14.726152    3.338054
C    21.395062   14.726152    3.339656
C    25.666515   14.726171    3.338615
C    29.937858   14.726145    3.339180
C     0.039774   14.726161    3.338816
C     4.310686   14.726160    3.338669
C     8.581598   14.726148    3.339253
C    11.430113   14.726155    3.338721
C    12.852560   14.726133    3.339834
C    15.701133   14.726140    3.338816
C    19.972460   14.726162    3.338877
C    24.243931   14.726146    3.337831
C    26.379638   15.959143    3.337424
C    30.650973   15.959136    3.338214
C     0.752819   15.959127    3.337725
C     5.023719   15.959107    3.337693
C    14.988058   15.959122    3.339793
C    19.259329   15.959151    3.339859
C    23.530802   15.959122    3.338903
C    27.802195   15.959124    3.338702
C    32.073463   15.959107    3.339239
C     2.175226   15.959097    3.338597
C     6.446118   15.959109    3.338932
C     9.294645   15.959088    3.338331
C    10.717061   15.959114    3.339562
C    13.565604   15.959081    3.338752
C    17.836767   15.959116    3.338816
C    22.108201   15.959126    3.338292
C    24.243925   17.192091    3.337703
C    28.515325   17.192094    3.337911
C    32.786528   17.192085    3.338219
C     2.888263   17.192056    3.337656
C    12.852559   17.192051    3.339672
C    17.123668   17.192089    3.339696
C    21.395068   17.192108    3.339411
C    25.666520   17.192117    3.338564
C    29.937862   17.192110    3.339192
C     0.039768   17.192112    3.338941
C     4.310674   17.192071    3.338703
C     8.581591   17.192055    3.339331
C     7.159167   17.192062    3.338122
C    11.430115   17.192077    3.338602
C    15.701158   17.192069    3.338665
C    19.972460   17.192119    3.338664
C    22.108201   18.425081    3.338243
C    26.379648   18.425072    3.337843
C    30.650953   18.425088    3.338441
C     0.752796   18.425067    3.337930
C    10.717075   18.425040    3.339674
C    14.988106   18.425041    3.339571
C    19.259337   18.425081    3.339565
C    23.530790   18.425075    3.339025
C    27.802235   18.425082    3.339101
C     6.446141   18.425041    3.339232
C    32.073454   18.425081    3.339434
C     2.175247   18.425049    3.338884
C     5.023696   18.425034    3.338027
C     9.294610   18.425040    3.338567
C    13.565619   18.425035    3.338640
C    17.836757   18.425064    3.338499
C    24.243926   19.658044    3.338146
C    28.515339   19.658070    3.338525
C    32.786503   19.658072    3.338483
C     8.581591   19.658047    3.339617
C    12.852566   19.658022    3.339736
C    17.123687   19.658053    3.339267
C    21.395059   19.658057    3.339293
C     4.310669   19.658017    3.339247
C    25.666528   19.658046    3.339157
C    29.937871   19.658070    3.339631
C     0.039735   19.658033    3.339235
C     2.888252   19.658042    3.338150
C     7.159164   19.658021    3.338520
C    11.430121   19.657997    3.338772
C    15.701174   19.658011    3.338353
C    19.972464   19.658039    3.338313
C    10.008575    4.864999    6.720713
C     7.159271    4.864932    6.725399
C     7.872477    6.098137    6.720844
C     9.295348    6.098238    6.723579
C    27.092607   14.728824    6.720324
C    24.244293   14.728760    6.725324
C    24.956876   15.961959    6.720928
C    26.379904   15.962031    6.723958
C     7.872463    3.631681    6.724467
C     9.295331    3.631698    6.725739
C    11.430526    7.330796    6.728214
C    10.008088    7.330603    6.721513
C     7.159793    7.330635    6.725013
C     7.872376    8.563276    6.725447
C     9.295466    8.563298    6.727629
C    24.956844   13.495510    6.724574
C    26.379872   13.495533    6.725609
C    28.514650   17.194595    6.728469
C    27.092155   17.194386    6.721290
C    24.244801   17.194438    6.725013
C    24.956813   18.427023    6.725342
C    26.380049   18.427010    6.727461
C     7.872438    1.166384    6.731482
C     9.295508    1.166314    6.734175
C    12.144190    1.165224    6.731885
C     5.023784    1.165360    6.735307
C    33.498648    1.166488    6.731333
C     3.600478    1.165239    6.732221
C    16.415525    1.166109    6.731821
C     0.752315    1.166148    6.734501
C    13.567574    1.165234    6.734429
C    17.838486    1.166484    6.734444
C    20.685673    1.165889    6.732374
C    29.227931    1.165981    6.731385
C    30.651167    1.165925    6.733956
C    24.956808    1.166752    6.730832
C    22.109071    1.166030    6.735250
C    26.380102    1.166773    6.733390
C    10.008186    2.399037    6.725844
C     7.159759    2.399137    6.730366
C     5.737375    2.398962    6.730222
C    14.280793    2.398648    6.731620
C     2.887137    2.398688    6.734685
C    11.430693    2.398880    6.730763
C    31.363954    2.399285    6.730590
C     1.464741    2.398716    6.729642
C    18.550838    2.398950    6.729891
C    32.786136    2.399004    6.732042
C    15.703301    2.398777    6.732665
C    22.821991    2.399426    6.731885
C    27.092480    2.399391    6.729650
C    19.973112    2.399266    6.734811
C    28.514908    2.399429    6.733842
C    24.244522    2.399437    6.733288
C    12.143967    3.632326    6.727697
C    33.498338    3.631481    6.730682
C     3.600661    3.632239    6.731213
C    16.415827    3.631305    6.731876
C    20.685960    3.632504    6.732204
C    30.650927    3.632593    6.733423
C     0.752044    3.631282    6.733958
C     5.024062    3.632350    6.732628
C    13.567465    3.632280    6.733772
C    17.838828    3.631457    6.734506
C    29.227851    3.632633    6.730954
C    24.956926    3.631773    6.731716
C    22.109170    3.632645    6.734739
C    26.380050    3.631774    6.734327
C    27.093033    4.864811    6.730418
C    31.363289    4.864892    6.728280
C     1.465226    4.864833    6.731084
C    14.280174    4.864847    6.729159
C    18.551617    4.864832    6.731373
C    22.821529    4.864857    6.729338
C    28.515420    4.864909    6.731526
C    32.785379    4.864875    6.732996
C     2.887793    4.864849    6.731954
C    11.430994    4.865015    6.725446
C    15.702823    4.864862    6.734518
C    19.973840    4.864882    6.732203
C    24.243994    4.864841    6.734072
C     5.736991    4.864916    6.724865
C    24.956841    6.097883    6.731204
C    29.227883    6.097104    6.729822
C    33.498326    6.098278    6.730460
C    16.415746    6.098393    6.731719
C    20.685964    6.097173    6.731048
C    26.380054    6.097892    6.733501
C    30.650954    6.097237    6.732714
C     0.752089    6.098414    6.733733
C    17.838825    6.098291    6.734030
C    22.109164    6.097093    6.733860
C     3.600693    6.097493    6.729993
C    12.143861    6.097465    6.727050
C    13.567379    6.097512    6.732443
C     5.024123    6.097414    6.730383
C    24.244513    7.330251    6.732566
C    22.821946    7.330175    6.731189
C    27.092478    7.330259    6.728944
C    31.363977    7.330490    6.729844
C    18.550863    7.330748    6.728941
C    28.514954    7.330251    6.733296
C    32.786151    7.330801    6.731331
C    15.703224    7.331050    6.732605
C    19.973129    7.330466    6.733523
C     1.464786    7.331009    6.729541
C    14.280644    7.331034    6.730658
C     2.887255    7.331039    6.733693
C     5.737434    7.330763    6.726659
C    24.956796    8.562864    6.732251
C    29.227974    8.563684    6.731429
C    22.109053    8.563668    6.734966
C    26.380147    8.562861    6.734927
C    20.685679    8.563787    6.731854
C    33.498691    8.563269    6.730731
C    16.415485    8.563620    6.731508
C    30.651225    8.563837    6.733600
C    17.838472    8.563292    6.733784
C     3.600532    8.564477    6.731446
C     0.752336    8.563636    6.734090
C    13.567444    8.564506    6.733523
C    12.143990    8.564387    6.728768
C     5.023921    8.564416    6.732721
C    27.092960    9.796501    6.731767
C    24.244027    9.796566    6.735049
C    22.821376    9.796389    6.730401
C    28.515505    9.796360    6.732886
C    18.551023    9.796630    6.731051
C    31.363747    9.796429    6.729359
C    19.973402    9.796485    6.732815
C    32.786024    9.796651    6.733803
C    15.702496    9.796987    6.733919
C     1.465485    9.796962    6.731672
C    14.280078    9.797124    6.729780
C     2.887793    9.797191    6.733419
C     5.736558    9.797119    6.728789
C    10.008896    9.796966    6.728105
C    11.431392    9.797140    6.730345
C     7.158979    9.797045    6.731627
C    24.956816   11.030228    6.731289
C    26.380003   11.030186    6.733983
C    29.227913   11.029032    6.731550
C    22.109142   11.029129    6.734841
C    16.415096   11.030301    6.731316
C    20.685686   11.029061    6.732296
C    33.499091   11.029934    6.731608
C    17.838093   11.029987    6.734114
C    30.651279   11.029034    6.734348
C     0.752725   11.030333    6.734892
C     3.600509   11.029725    6.732286
C    12.144189   11.029817    6.731607
C    13.567447   11.029681    6.733723
C     7.872433   11.030586    6.730989
C     5.023682   11.029872    6.735515
C     9.295556   11.030606    6.733426
C    27.092219   12.262876    6.725472
C    24.244701   12.262944    6.730487
C    22.822167   12.262745    6.730087
C    31.364353   12.262428    6.731443
C    19.972842   12.262522    6.734567
C    28.514795   12.262676    6.731076
C    14.280393   12.263002    6.731031
C    18.550260   12.262517    6.729907
C     1.465341   12.262794    6.730194
C    15.702613   12.262813    6.731897
C    32.786811   12.262541    6.733286
C     5.737190   12.263230    6.732420
C    10.008401   12.263191    6.730329
C     2.887436   12.263065    6.735267
C    11.430776   12.263248    6.733788
C     7.159570   12.263262    6.733688
C    29.227720   13.496181    6.727618
C    16.414763   13.495277    6.730998
C    20.685877   13.496095    6.731370
C    33.499386   13.495140    6.732030
C     3.600755   13.496359    6.732312
C    13.567211   13.496385    6.733632
C    17.837810   13.495123    6.733723
C    22.109449   13.496218    6.732457
C    30.651199   13.496039    6.734044
C     0.753079   13.495332    6.734937
C    12.144098   13.496452    6.731306
C     7.872516   13.495656    6.732131
C     5.023801   13.496483    6.735423
C     9.295526   13.495667    6.734531
C    10.009054   14.728678    6.731062
C    14.279687   14.728664    6.728708
C    18.550749   14.728647    6.731217
C    31.363777   14.728631    6.729095
C     1.466121   14.728675    6.731436
C     5.736673   14.728668    6.729897
C    11.431348   14.728746    6.731615
C    15.701858   14.728678    6.732823
C    19.973441   14.728679    6.731852
C    28.515107   14.728840    6.725908
C    32.786340   14.728685    6.734858
C     2.888189   14.728711    6.732860
C     7.158954   14.728671    6.734234
C    22.821851   14.728718    6.724680
C     7.872468   15.961639    6.731580
C    12.144162   15.960882    6.730459
C    16.414786   15.962024    6.730844
C    33.499334   15.962215    6.731817
C     3.600768   15.960995    6.731461
C     9.295554   15.961697    6.734091
C    13.567227   15.961011    6.732822
C    17.837852   15.962227    6.733770
C     0.753055   15.962039    6.734810
C     5.023786   15.960869    6.734384
C    20.685891   15.961256    6.730437
C    29.227604   15.961275    6.727140
C    30.651064   15.961251    6.732643
C    22.109506   15.961184    6.730094
C     7.159568   17.194051    6.732908
C     5.737130   17.193981    6.731540
C    10.008428   17.194038    6.729887
C    14.280441   17.194257    6.730054
C     1.465320   17.194544    6.729519
C    11.430863   17.194030    6.733408
C    15.702637   17.194572    6.731244
C    32.786725   17.194823    6.733047
C     2.887437   17.194292    6.733986
C    18.550280   17.194762    6.729851
C    31.364195   17.194800    6.730312
C    19.972906   17.194816    6.733534
C    22.822227   17.194558    6.726167
C     7.872422   18.426615    6.732488
C    12.144266   18.427400    6.731628
C     5.023669   18.427427    6.735208
C     9.295600   18.426599    6.735133
C     3.600471   18.427540    6.731624
C    16.415105   18.426993    6.730985
C    33.499032   18.427394    6.731456
C    13.567545   18.427621    6.733382
C     0.752670   18.427036    6.734253
C    20.685691   18.428220    6.731282
C    17.838060   18.427338    6.733855
C    30.651185   18.428269    6.733543
C    29.227765   18.428173    6.728325
C    22.109254   18.428195    6.732116
C    10.008969   19.660167    6.732361
C     7.158998   19.660267    6.735279
C     5.736514   19.660121    6.730793
C    11.431444   19.660093    6.732950
C     1.465462   19.660356    6.731183
C    14.280201   19.660173    6.729625
C     2.887730   19.660175    6.733160
C    15.702517   19.660391    6.733585
C    32.785971   19.660705    6.734224
C    18.550972   19.660619    6.731651
C    31.363660   19.660928    6.729639
C    19.973392   19.660920    6.733014
C    22.821405   19.660851    6.728497
C    27.092936   19.660659    6.727546
C    28.515491   19.660855    6.730463
C    24.244030   19.660738    6.731510
