548       
Geometry optimisation iteration:    20
Li    8.585606    4.867361    8.738727
Li    8.584994   14.731850    8.749397
Li   25.653339   14.733105    8.739517
Li   25.653990    4.865595    8.750368
C    10.018590    4.864580    6.832444
C     7.149237    4.864559    6.835002
C     7.865609    6.106779    6.834368
C     9.302178    6.106837    6.833202
C    27.101349   14.728431    6.839029
C    24.232595   14.728431    6.830346
C    24.948949   15.970710    6.832188
C    26.385255   15.970615    6.836550
C     7.865574    3.622277    6.834276
C     9.302207    3.622258    6.833157
C    11.432916    7.332609    6.846204
C    10.011347    7.335810    6.833883
C     7.156454    7.335779    6.835387
C     7.868667    8.562306    6.848094
C     9.299143    8.562283    6.848002
C    24.948931   13.486098    6.832332
C    26.385202   13.486207    6.836686
C    28.515725   17.196457    6.851777
C    27.094190   17.199638    6.838073
C    24.240009   17.199684    6.833459
C    24.951932   18.426122    6.848545
C    26.382231   18.426204    6.848684
C     7.868706    1.166838    6.847504
C     9.299114    1.166851    6.847408
C    12.143375    1.161981    6.855102
C     5.024090    1.161902    6.856251
C    33.495667    1.168783    6.861000
C     3.594905    1.162466    6.858988
C    16.412202    1.168712    6.860830
C     0.754285    1.168738    6.860406
C    13.572320    1.162451    6.858695
C    17.839703    1.168696    6.862190
C    20.679340    1.162362    6.860091
C    29.226306    1.161707    6.856959
C    30.655343    1.162469    6.857828
C    24.951964    1.166577    6.847977
C    22.108171    1.161708    6.857219
C    26.382170    1.166506    6.848013
C    10.011340    2.393266    6.832576
C     7.156444    2.393288    6.834100
C     5.734730    2.396621    6.849087
C    14.283584    2.397766    6.858425
C     2.883461    2.397743    6.858103
C    11.432895    2.396658    6.846699
C    31.366568    2.397694    6.857104
C     1.462542    2.398905    6.849393
C    18.547671    2.398854    6.851880
C    32.787404    2.398904    6.849197
C    15.704249    2.398930    6.850105
C    22.818479    2.396460    6.850988
C    27.094152    2.393188    6.840837
C    19.968256    2.397610    6.860329
C    28.515728    2.396543    6.855392
C    24.239958    2.393088    6.836538
C    12.145245    3.633185    6.845963
C    33.496376    3.628887    6.861221
C     3.595136    3.634336    6.853387
C    16.412977    3.628991    6.861722
C    20.679553    3.634225    6.855693
C    30.655104    3.634271    6.854611
C     0.753548    3.628945    6.860538
C     5.022150    3.633159    6.848960
C    13.572039    3.634409    6.852705
C    17.838922    3.628862    6.863284
C    29.228250    3.633147    6.855662
C    24.948908    3.622263    6.839064
C    22.106211    3.633035    6.850488
C    26.385163    3.622368    6.843275
C    27.101236    4.864588    6.846749
C    31.363960    4.864702    6.844845
C     1.466005    4.864821    6.857067
C    14.280959    4.864744    6.843903
C    18.551197    4.864792    6.861261
C    22.811109    4.864568    6.837020
C    28.522879    4.864615    6.846228
C    32.783881    4.864826    6.858596
C     2.886077    4.864704    6.843709
C    11.440077    4.864632    6.831710
C    15.700765    4.864833    6.858172
C    19.970898    4.864653    6.847111
C    24.232605    4.864591    6.838278
C     5.727593    4.864565    6.835697
C    24.948916    6.106857    6.841320
C    29.228244    6.096123    6.857852
C    33.496446    6.100746    6.859071
C    16.413013    6.100629    6.859449
C    20.679504    6.095102    6.856900
C    26.385121    6.106777    6.845558
C    30.655171    6.095132    6.855824
C     0.753541    6.100667    6.858299
C    17.838897    6.100689    6.861059
C    22.106200    6.096136    6.852766
C     3.595131    6.095038    6.853817
C    12.145248    6.096103    6.847057
C    13.572099    6.095090    6.853168
C     5.022211    6.096010    6.850026
C    24.239920    7.336048    6.842482
C    22.818420    7.332765    6.853766
C    27.094173    7.335980    6.846630
C    31.366627    7.331832    6.856538
C    18.547652    7.330682    6.851122
C    28.515776    7.332768    6.857951
C    32.787447    7.330682    6.848590
C    15.704266    7.330680    6.848905
C    19.968186    7.331826    6.859675
C     1.462559    7.330671    6.848202
C    14.283603    7.331817    6.856566
C     2.883486    7.331744    6.856225
C     5.734771    7.332572    6.848540
C    24.951920    8.562635    6.856453
C    29.226378    8.567564    6.857277
C    22.108090    8.567477    6.857675
C    26.382179    8.562708    6.856432
C    20.679341    8.567022    6.858840
C    33.495658    8.560832    6.862388
C    16.412131    8.560920    6.861824
C    30.655338    8.567002    6.856602
C    17.839694    8.560862    6.863510
C     3.594974    8.566919    6.855135
C     0.754367    8.560875    6.861352
C    13.572327    8.567022    6.854890
C    12.143406    8.567341    6.851211
C     5.024116    8.567335    6.852317
C    27.094820    9.796685    6.853920
C    24.239267    9.796708    6.855459
C    22.816274    9.796617    6.847074
C    28.517871    9.796630    6.845729
C    18.550733    9.796738    6.862679
C    31.362851    9.796681    6.848288
C    19.972087    9.796677    6.850284
C    32.784461    9.796712    6.861556
C    15.701293    9.796769    6.859666
C     1.465501    9.796687    6.859591
C    14.279854    9.796634    6.847348
C     2.887180    9.796560    6.847439
C     5.732678    9.796395    6.842127
C    10.012017    9.796377    6.849324
C    11.435080    9.796434    6.841437
C     7.155856    9.796363    6.849315
C    24.951975   11.030666    6.848060
C    26.382164   11.030605    6.848242
C    29.226218   11.025711    6.857076
C    22.108253   11.025764    6.856718
C    16.412213   11.032525    6.860134
C    20.679441   11.026325    6.859581
C    33.495713   11.032520    6.861130
C    17.839711   11.032561    6.861559
C    30.655279   11.026358    6.857991
C     0.754323   11.032448    6.860373
C     3.594890   11.026132    6.859225
C    12.143398   11.025611    6.855012
C    13.572375   11.026193    6.858556
C     7.868741   11.030344    6.847186
C     5.024120   11.025504    6.856564
C     9.299121   11.030388    6.846880
C    27.094128   12.257187    6.836961
C    24.240045   12.257093    6.832233
C    22.818642   12.260452    6.847287
C    31.366569   12.261565    6.856773
C    19.968310   12.261565    6.858883
C    28.515649   12.260487    6.852472
C    14.283641   12.261477    6.858875
C    18.547723   12.262728    6.850764
C     1.462533   12.262625    6.849971
C    15.704267   12.262745    6.849381
C    32.787435   12.262669    6.849537
C     5.734732   12.260317    6.852897
C    10.011329   12.256988    6.836378
C     2.883409   12.261394    6.859421
C    11.432955   12.260378    6.849804
C     7.156452   12.256964    6.838415
C    29.228214   13.497048    6.851863
C    16.412988   13.492790    6.860550
C    20.679714   13.498103    6.853211
C    33.496436   13.492655    6.862000
C     3.595047   13.498042    6.856294
C    13.572153   13.498136    6.854708
C    17.838937   13.492716    6.861959
C    22.106374   13.496971    6.845873
C    30.655070   13.498117    6.853317
C     0.753567   13.492711    6.861413
C    12.145314   13.496902    6.850397
C     7.865615   13.486211    6.841278
C     5.022087   13.496873    6.854156
C     9.302123   13.486159    6.839890
C    10.018485   14.728446    6.840143
C    14.280986   14.728484    6.845082
C    18.551271   14.728612    6.859956
C    31.363954   14.728491    6.844323
C     1.465970   14.728585    6.858308
C     5.727455   14.728386    6.843105
C    11.440149   14.728398    6.838330
C    15.700808   14.728609    6.857487
C    19.971018   14.728470    6.845159
C    28.522838   14.728432    6.840080
C    32.783916   14.728637    6.859357
C     2.886018   14.728457    6.846133
C     7.149262   14.728413    6.843165
C    22.811268   14.728382    6.830344
C     7.865599   15.970637    6.842941
C    12.145288   15.959941    6.852607
C    16.413009   15.964429    6.858532
C    33.496464   15.964560    6.859783
C     3.594966   15.958889    6.857543
C     9.302102   15.970727    6.841570
C    13.572182   15.958871    6.856010
C    17.838899   15.964511    6.859794
C     0.753540   15.964491    6.859360
C     5.022063   15.959911    6.856289
C    20.679688   15.958842    6.853724
C    29.228217   15.959886    6.852913
C    30.655114   15.958922    6.853691
C    22.106370   15.959826    6.847055
C     7.156372   17.199854    6.843703
C     5.734601   17.196559    6.855261
C    10.011363   17.199908    6.841735
C    14.283689   17.195635    6.858276
C     1.462513   17.194522    6.849334
C    11.433027   17.196573    6.852274
C    15.704286   17.194464    6.848788
C    32.787463   17.194522    6.848304
C     2.883350   17.195648    6.858794
C    18.547713   17.194436    6.849652
C    31.366613   17.195587    6.854799
C    19.968317   17.195520    6.857058
C    22.818589   17.196412    6.846774
C     7.868640   18.426509    6.855190
C    12.143495   18.431285    6.855245
C     5.023975   18.431300    6.856779
C     9.299134   18.426468    6.854934
C     3.594821   18.430843    6.857880
C    16.412170   18.424705    6.861556
C    33.495624   18.424692    6.862121
C    13.572391   18.430839    6.857188
C     0.754314   18.424743    6.861773
C    20.679444   18.430675    6.855791
C    17.839750   18.424621    6.862663
C    30.655326   18.430737    6.854041
C    29.226355   18.431232    6.853016
C    22.108214   18.431091    6.852832
C    10.012029   19.660475    6.853485
C     7.155807   19.660505    6.853424
C     5.732593   19.660393    6.845277
C    11.435101   19.660417    6.844540
C     1.465451   19.660560    6.860085
C    14.279865   19.660455    6.848418
C     2.887127   19.660447    6.848570
C    15.701283   19.660547    6.860090
C    32.784439   19.660543    6.861066
C    18.550746   19.660472    6.862283
C    31.362852   19.660434    6.847092
C    19.972098   19.660335    6.849172
C    22.816290   19.660185    6.843797
C    27.094846   19.660205    6.849588
C    28.517900   19.660225    6.842492
C    24.239275   19.660157    6.851125
Li    0.030577   19.652807    4.973780
Li    0.030619   14.720532    4.972396
Li    0.030718    9.787414    4.973726
Li    0.030611    4.855799    4.971590
Li    4.301918   17.188814    4.970644
Li    4.301669   12.250465    4.970065
Li    4.301236    7.327006    4.966668
Li    4.301289    2.385838    4.967987
Li    8.586184    4.856241    4.959149
Li    8.587496    9.787540    4.961892
Li    8.586066   14.722017    4.964841
Li    8.587487   19.651540    4.965284
Li   12.873001   17.189294    4.969042
Li   12.873366   12.250041    4.968407
Li   12.873891    7.327464    4.965594
Li   12.873755    2.385523    4.967058
Li   17.137513   19.652947    4.973733
Li   17.137535   14.720459    4.971573
Li   17.137225    9.787241    4.973660
Li   17.137468    4.855706    4.972490
Li   21.387195   17.189830    4.965824
Li   21.387324   12.249442    4.967122
Li   21.388177    7.327565    4.969806
Li   21.387614    2.385249    4.969072
Li   25.659140   19.653109    4.962051
Li   25.664690   14.720795    4.959208
Li   25.659127    9.786013    4.965550
Li   25.664695    4.857461    4.965063
Li   29.934137   17.188715    4.966719
Li   29.934013   12.250642    4.968099
Li   29.933180    7.326479    4.970070
Li   29.933505    2.386507    4.969306
C    10.010334    4.864909    3.088116
C     7.157264    4.864872    3.088453
C     7.869237    6.100962    3.088468
C     9.298359    6.101010    3.088357
C    27.094276   14.728676    3.087644
C    24.241771   14.728662    3.087009
C    24.953563   15.964773    3.087602
C    26.382520   15.964766    3.087996
C     7.869201    3.628722    3.085540
C     9.298387    3.628728    3.085416
C    11.429344    7.330859    3.080254
C    10.007063    7.330923    3.093169
C     7.160585    7.330922    3.093109
C     7.869244    8.560724    3.075406
C     9.298370    8.560721    3.075161
C    24.953527   13.492543    3.084754
C    26.382521   13.492547    3.085179
C    28.513079   17.194692    3.077837
C    27.090919   17.194760    3.092208
C    24.245086   17.194684    3.092041
C    24.953492   18.424487    3.074629
C    26.382487   18.424575    3.075467
C     7.869260    1.168922    3.078729
C     9.298321    1.168939    3.078439
C    12.140937    1.163098    3.076209
C     5.026540    1.163018    3.076732
C    33.495650    1.168995    3.078851
C     3.597492    1.162939    3.075691
C    16.412053    1.168867    3.079726
C     0.755115    1.168929    3.080107
C    13.569891    1.162956    3.074433
C    17.840647    1.168893    3.078755
C    20.682582    1.162948    3.075235
C    29.224668    1.162973    3.074550
C    30.653507    1.163125    3.075241
C    24.953504    1.168756    3.076487
C    22.111419    1.162923    3.075889
C    26.382467    1.168723    3.077118
C    10.007042    2.398759    3.092731
C     7.160571    2.398752    3.092706
C     5.738215    2.398906    3.080992
C    14.281577    2.399007    3.075619
C     2.885815    2.398988    3.077049
C    11.429358    2.398945    3.081079
C    31.365004    2.399080    3.078064
C     1.463533    2.399053    3.089131
C    18.548943    2.398991    3.088415
C    32.787184    2.399092    3.088443
C    15.703789    2.399036    3.088450
C    22.822797    2.398805    3.082374
C    27.090935    2.398587    3.094125
C    19.971050    2.398958    3.077485
C    28.513123    2.398865    3.080366
C    24.244985    2.398580    3.094497
C    12.141013    3.634834    3.081898
C    33.495617    3.629075    3.077127
C     3.597639    3.634918    3.078421
C    16.412042    3.629082    3.078492
C    20.682600    3.634861    3.080126
C    30.653490    3.634940    3.079679
C     0.755173    3.629098    3.078230
C     5.026469    3.634821    3.082235
C    13.569768    3.634962    3.077375
C    17.840708    3.628994    3.077774
C    29.224866    3.634912    3.083260
C    24.953421    3.628609    3.091114
C    22.111206    3.634760    3.085039
C    26.382579    3.628649    3.091276
C    27.094434    4.864917    3.094053
C    31.361900    4.864981    3.088479
C     1.466809    4.864966    3.079164
C    14.278319    4.864933    3.087331
C    18.552274    4.864943    3.077980
C    22.819326    4.864851    3.099099
C    28.516677    4.864921    3.097918
C    32.783990    4.865031    3.077300
C     2.889061    4.864919    3.088176
C    11.432625    4.864869    3.095006
C    15.700499    4.864945    3.079164
C    19.974302    4.864894    3.088914
C    24.241548    4.864879    3.093846
C     5.734932    4.864830    3.095332
C    24.953411    6.101128    3.093937
C    29.224846    6.094982    3.081543
C    33.495689    6.100892    3.078462
C    16.412036    6.100752    3.079602
C    20.682587    6.094917    3.078023
C    26.382555    6.101127    3.094081
C    30.653541    6.095033    3.077701
C     0.755189    6.100797    3.079348
C    17.840645    6.100828    3.079104
C    22.111222    6.094930    3.083201
C     3.597659    6.094877    3.075643
C    12.140976    6.094941    3.079626
C    13.569791    6.094898    3.074470
C     5.026555    6.094883    3.080035
C    24.244914    7.331058    3.096901
C    22.822755    7.330915    3.083246
C    27.090981    7.331123    3.096555
C    31.365028    7.330919    3.077723
C    18.548917    7.330790    3.087925
C    28.513151    7.331009    3.081376
C    32.787245    7.330841    3.087955
C    15.703727    7.330807    3.087113
C    19.971033    7.330850    3.077041
C     1.463628    7.330797    3.087838
C    14.281521    7.330904    3.073557
C     2.885925    7.330872    3.075132
C     5.738291    7.330838    3.080202
C    24.953423    8.560863    3.078939
C    29.224729    8.566845    3.077630
C    22.111323    8.566762    3.078790
C    26.382479    8.560943    3.079565
C    20.682558    8.566782    3.077314
C    33.495711    8.560948    3.076900
C    16.411961    8.561009    3.077313
C    30.653513    8.566790    3.077423
C    17.840620    8.560912    3.076914
C     3.597676    8.566812    3.075115
C     0.755251    8.561004    3.077699
C    13.569796    8.566860    3.073763
C    12.140926    8.566697    3.075629
C     5.026636    8.566703    3.076131
C    27.093975    9.796869    3.077254
C    24.241840    9.796836    3.075929
C    22.819586    9.796812    3.087019
C    28.516271    9.796844    3.086782
C    18.552105    9.796835    3.077343
C    31.361816    9.796800    3.087312
C    19.974343    9.796770    3.086930
C    32.784145    9.796861    3.077594
C    15.700595    9.796897    3.078522
C     1.466744    9.796871    3.079295
C    14.278270    9.796828    3.085770
C     2.889172    9.796803    3.087084
C     5.735145    9.796690    3.085895
C    10.010133    9.796695    3.073633
C    11.432504    9.796719    3.085171
C     7.157543    9.796676    3.074342
C    24.953503   11.032710    3.077873
C    26.382385   11.032650    3.078689
C    29.224648   11.026817    3.075199
C    22.111399   11.026823    3.075843
C    16.411982   11.032701    3.079746
C    20.682517   11.026751    3.075089
C    33.495757   11.032736    3.079306
C    17.840582   11.032711    3.078906
C    30.653561   11.026855    3.075696
C     0.755236   11.032686    3.080437
C     3.597596   11.026784    3.076084
C    12.140929   11.026832    3.076066
C    13.569864   11.026785    3.074395
C     7.869274   11.032558    3.077990
C     5.026625   11.026766    3.077033
C     9.298383   11.032591    3.077583
C    27.090867   12.262510    3.091814
C    24.245075   12.262552    3.091575
C    22.822891   12.262703    3.079771
C    31.365103   12.262794    3.077703
C    19.970983   12.262775    3.076255
C    28.513055   12.262721    3.078737
C    14.281541   12.262815    3.076220
C    18.548831   12.262803    3.087859
C     1.463649   12.262845    3.089946
C    15.703694   12.262863    3.088449
C    32.787319   12.262817    3.088813
C     5.738199   12.262630    3.083743
C    10.007112   12.262397    3.095699
C     2.885884   12.262771    3.078324
C    11.429400   12.262673    3.083166
C     7.160521   12.262379    3.096073
C    29.224782   13.498662    3.080322
C    16.411944   13.492909    3.077927
C    20.682668   13.498654    3.077553
C    33.495734   13.492820    3.077842
C     3.597594   13.498712    3.080467
C    13.569828   13.498766    3.078710
C    17.840612   13.492835    3.076812
C    22.111335   13.498589    3.081165
C    30.653472   13.498661    3.078091
C     0.755278   13.492882    3.079247
C    12.141117   13.498640    3.084652
C     7.869149   13.492438    3.092222
C     5.026384   13.498627    3.085617
C     9.298463   13.492429    3.091911
C    10.010505   14.728734    3.094518
C    14.278356   14.728746    3.088258
C    18.552241   14.728732    3.076394
C    31.361861   14.728703    3.087148
C     1.466811   14.728776    3.080344
C     5.734712   14.728669    3.100021
C    11.432846   14.728703    3.099190
C    15.700485   14.728754    3.078778
C    19.974367   14.728653    3.086454
C    28.516503   14.728675    3.093421
C    32.784054   14.728765    3.077476
C     2.889008   14.728700    3.089918
C     7.157115   14.728707    3.095136
C    22.819572   14.728606    3.093893
C     7.869144   15.964945    3.094901
C    12.141114   15.958780    3.082852
C    16.411994   15.964562    3.079136
C    33.495722   15.964677    3.078904
C     3.597545   15.958709    3.078249
C     9.298445   15.965006    3.094593
C    13.569853   15.958726    3.076594
C    17.840598   15.964621    3.077881
C     0.755192   15.964607    3.080422
C     5.026366   15.958724    3.083750
C    20.682682   15.958654    3.074760
C    29.224757   15.958696    3.077936
C    30.653500   15.958747    3.075179
C    22.111395   15.958652    3.078905
C     7.160433   17.194923    3.098501
C     5.738125   17.194741    3.084689
C    10.007176   17.194948    3.098069
C    14.281563   17.194707    3.075868
C     1.463596   17.194626    3.089463
C    11.429460   17.194786    3.084159
C    15.703732   17.194602    3.087986
C    32.787234   17.194657    3.087627
C     2.885831   17.194694    3.077858
C    18.548903   17.194591    3.086669
C    31.365027   17.194700    3.075769
C    19.971062   17.194621    3.074446
C    22.822924   17.194595    3.079001
C     7.869157   18.424726    3.080491
C    12.141014   18.430593    3.079194
C     5.026491   18.430562    3.080093
C     9.298414   18.424708    3.080041
C     3.597542   18.430605    3.078279
C    16.412000   18.424796    3.077996
C    33.495625   18.424779    3.077093
C    13.569883   18.430660    3.076734
C     0.755173   18.424806    3.078726
C    20.682645   18.430549    3.074674
C    17.840655   18.424723    3.076601
C    30.653478   18.430591    3.075168
C    29.224670   18.430544    3.074632
C    22.111451   18.430415    3.075402
C    10.010157   19.660650    3.077087
C     7.157447   19.660676    3.077914
C     5.735037   19.660606    3.088654
C    11.432524   19.660649    3.087836
C     1.466634   19.660677    3.080026
C    14.278319   19.660585    3.087220
C     2.889038   19.660547    3.088471
C    15.700629   19.660659    3.079221
C    32.784065   19.660705    3.077126
C    18.552157   19.660622    3.076783
C    31.361758   19.660666    3.086046
C    19.974411   19.660537    3.085702
C    22.819670   19.660432    3.084430
C    27.093988   19.660472    3.073815
C    28.516277   19.660508    3.084144
C    24.241935   19.660439    3.072475
