549       
Geometry optimisation iteration:     5
Li   10.764966    3.576326    8.706683
Li    8.354013    4.991064    8.716849
Li   10.789450    6.386606    8.829724
Li    8.294966    2.154410    8.862845
Li    9.549769    4.292579   11.344473
C    10.007684    4.865308    6.778945
C     7.134387    4.871474    6.783760
C     7.851995    6.116351    6.785551
C     9.291391    6.115355    6.826191
C    27.092736   14.728728    6.849925
C    24.244303   14.728747    6.851566
C    24.954521   15.964334    6.850501
C    26.382671   15.964267    6.849727
C     7.853275    3.626778    6.823377
C     9.295553    3.630653    6.772881
C    11.437437    7.350290    6.834966
C    10.004177    7.349591    6.827633
C     7.146228    7.345673    6.797982
C     7.860614    8.575024    6.834686
C     9.292766    8.578348    6.844048
C    24.954461   13.492988    6.851882
C    26.382742   13.492967    6.851040
C    28.510916   17.194092    6.853582
C    27.089305   17.194118    6.840044
C    24.247758   17.194099    6.840262
C    24.954465   18.424007    6.853867
C    26.382652   18.424101    6.852941
C     7.855703    1.152747    6.835890
C     9.295621    1.154860    6.857631
C    12.149663    1.152988    6.838888
C     5.011758    1.158195    6.844907
C    33.487235    1.167956    6.857811
C     3.584542    1.160082    6.850419
C    16.420286    1.166703    6.855313
C     0.745490    1.167204    6.857178
C    13.578046    1.156948    6.843768
C    17.847840    1.167949    6.858455
C    20.687679    1.162406    6.859552
C    29.220777    1.162399    6.857313
C    30.648844    1.162411    6.856811
C    24.954624    1.168439    6.854076
C    22.115843    1.162508    6.858369
C    26.382518    1.168411    6.852947
C    10.006937    2.388540    6.818587
C     7.141444    2.392932    6.824312
C     5.717877    2.394505    6.840777
C    14.292530    2.396850    6.843226
C     2.872321    2.396935    6.852495
C    11.438520    2.387760    6.816154
C    31.359124    2.398743    6.855986
C     1.452539    2.398094    6.845117
C    18.556000    2.398182    6.847341
C    32.779953    2.398451    6.845339
C    15.712872    2.397823    6.838932
C    22.826342    2.398708    6.857657
C    27.089194    2.398632    6.843812
C    19.976952    2.398639    6.859486
C    28.510330    2.398708    6.857071
C    24.247676    2.398635    6.844601
C    12.156168    3.631795    6.820439
C    33.487020    3.629108    6.859151
C     3.583196    3.634812    6.845984
C    16.421503    3.628604    6.853537
C    20.688026    3.634824    6.857943
C    30.648489    3.634834    6.855076
C     0.744828    3.629109    6.858605
C     5.007190    3.634322    6.831626
C    13.583960    3.633359    6.838940
C    17.848248    3.628959    6.858383
C    29.220774    3.634888    6.856446
C    24.954706    3.628859    6.859082
C    22.115615    3.634892    6.857693
C    26.382523    3.628931    6.857869
C    27.092638    4.865176    6.857133
C    31.355679    4.865175    6.843463
C     1.456026    4.865919    6.856599
C    14.291452    4.867257    6.839411
C    18.559906    4.865543    6.858330
C    22.822938    4.865121    6.846814
C    28.513680    4.865151    6.844985
C    32.776431    4.865512    6.856665
C     2.875482    4.866666    6.837456
C    11.441539    4.869597    6.827424
C    15.709585    4.866261    6.852788
C    19.980415    4.865244    6.846426
C    24.244204    4.865158    6.859375
C     5.713492    4.868565    6.796604
C    24.954723    6.101275    6.858566
C    29.220783    6.095455    6.858257
C    33.487453    6.101882    6.856519
C    16.421498    6.103551    6.852418
C    20.687866    6.095704    6.859276
C    26.382454    6.101239    6.857372
C    30.648703    6.095616    6.856368
C     0.745379    6.102491    6.856276
C    17.848246    6.102272    6.856252
C    22.115640    6.095402    6.859413
C     3.584316    6.097706    6.843710
C    12.154203    6.103402    6.856630
C    13.583985    6.101134    6.857341
C     5.010715    6.099278    6.821132
C    24.247675    7.331461    6.847268
C    22.826143    7.331650    6.858789
C    27.089193    7.331488    6.846455
C    31.359227    7.331824    6.855476
C    18.556029    7.332838    6.846646
C    28.510530    7.331702    6.858243
C    32.780477    7.332145    6.844606
C    15.712872    7.334385    6.839062
C    19.977117    7.332107    6.859021
C     1.453867    7.332868    6.845309
C    14.292143    7.337055    6.851076
C     2.874442    7.334660    6.852101
C     5.725624    7.339914    6.819935
C    24.954486    8.561589    6.860193
C    29.221029    8.567689    6.857157
C    22.115636    8.567651    6.858142
C    26.382685    8.561629    6.859053
C    20.687621    8.568071    6.858212
C    33.488135    8.562095    6.859304
C    16.420160    8.565201    6.854576
C    30.649009    8.567810    6.855655
C    17.848138    8.563101    6.858885
C     3.586894    8.571114    6.851527
C     0.746841    8.563213    6.859270
C    13.579613    8.577481    6.844828
C    12.149810    8.583104    6.841459
C     5.016047    8.573538    6.841772
C    27.092646    9.797590    6.856382
C    24.244238    9.797602    6.858297
C    22.822620    9.797700    6.846483
C    28.514198    9.797672    6.845102
C    18.558864    9.799297    6.859003
C    31.356279    9.797901    6.844962
C    19.980308    9.798132    6.847051
C    32.777821    9.798206    6.857815
C    15.708961    9.801582    6.852303
C     1.458190    9.798807    6.857903
C    14.285742    9.803804    6.835785
C     2.880164    9.800153    6.845361
C     5.725971    9.803778    6.837749
C    10.009179    9.808702    6.844378
C    11.436134    9.809892    6.830550
C     7.150055    9.805406    6.846203
C    24.954469   11.033452    6.854624
C    26.382705   11.033339    6.853707
C    29.221064   11.027541    6.857944
C    22.115750   11.027718    6.858432
C    16.419189   11.036286    6.856648
C    20.687462   11.028011    6.859402
C    33.488733   11.033692    6.857683
C    17.847901   11.034865    6.858050
C    30.649355   11.027790    6.857393
C     0.747767   11.034362    6.857404
C     3.588948   11.029866    6.859442
C    12.145062   11.034586    6.850676
C    13.576017   11.033827    6.852103
C     7.864958   11.040566    6.852218
C     5.018791   11.030969    6.859420
C     9.295617   11.041096    6.849290
C    27.089390   12.263188    6.840659
C    24.247687   12.263240    6.840935
C    22.826026   12.263473    6.854908
C    31.359697   12.263499    6.856101
C    19.976897   12.263787    6.858084
C    28.511022   12.263336    6.855093
C    14.287343   12.267067    6.857670
C    18.555289   12.264509    6.846722
C     1.455839   12.263600    6.846180
C    15.710575   12.266016    6.846321
C    32.781278   12.263456    6.845781
C     5.731616   12.266178    6.859630
C    10.007298   12.268565    6.842564
C     2.878090   12.264418    6.858479
C    11.430968   12.269150    6.854146
C     7.155412   12.266743    6.846511
C    29.221303   13.498969    6.853918
C    16.418032   13.494561    6.859376
C    20.687633   13.499328    6.855903
C    33.488908   13.493027    6.859751
C     3.589959   13.499179    6.857827
C    13.574523   13.501675    6.857867
C    17.847203   13.494018    6.859225
C    22.115652   13.499111    6.854341
C    30.649365   13.498945    6.854397
C     0.748191   13.493092    6.859086
C    12.143999   13.501632    6.858735
C     7.866177   13.494859    6.861278
C     5.019744   13.499653    6.860312
C     9.296337   13.495275    6.860575
C    10.010304   14.729102    6.860323
C    14.283303   14.729752    6.845622
C    18.558183   14.729270    6.857614
C    31.356534   14.728586    6.843590
C     1.459146   14.728267    6.856988
C     5.728946   14.727484    6.848897
C    11.433757   14.729301    6.848612
C    15.706555   14.729769    6.856585
C    19.980013   14.728969    6.844469
C    28.514351   14.728589    6.840355
C    32.777966   14.728604    6.857667
C     2.881630   14.728009    6.845263
C     7.152714   14.728066    6.860059
C    22.822753   14.728710    6.841434
C     7.865808   15.960675    6.855767
C    12.143924   15.957723    6.859243
C    16.418056   15.964693    6.856904
C    33.488668   15.964258    6.857651
C     3.589178   15.956379    6.858853
C     9.295928   15.961600    6.856844
C    13.574622   15.957630    6.858284
C    17.847060   15.964865    6.856956
C     0.747587   15.963526    6.857285
C     5.019228   15.955812    6.859570
C    20.687494   15.958561    6.856475
C    29.221130   15.958322    6.854806
C    30.649432   15.958295    6.854861
C    22.115814   15.958468    6.855254
C     7.154053   17.188592    6.840438
C     5.730153   17.189200    6.852957
C    10.007035   17.189675    6.844729
C    14.287028   17.192998    6.856210
C     1.454801   17.193160    6.845900
C    11.431036   17.190047    6.855854
C    15.710212   17.193598    6.845268
C    32.781082   17.193802    6.844666
C     2.877032   17.192153    6.856664
C    18.554928   17.194180    6.845405
C    31.359501   17.193992    6.853958
C    19.976741   17.194447    6.856058
C    22.826117   17.194161    6.853408
C     7.862273   18.413955    6.853640
C    12.144778   18.425695    6.854027
C     5.016618   18.425079    6.849980
C     9.296051   18.416030    6.859560
C     3.586664   18.426583    6.852066
C    16.418660   18.423099    6.859058
C    33.488027   18.423561    6.858979
C    13.575749   18.426359    6.851692
C     0.746884   18.422585    6.858926
C    20.687538   18.429957    6.855196
C    17.847491   18.423959    6.859300
C    30.649111   18.429720    6.853071
C    29.221078   18.429965    6.853386
C    22.115735   18.429932    6.853944
C    10.010854   19.648109    6.861648
C     7.144569   19.646488    6.846624
C     5.721736   19.651510    6.832516
C    11.436357   19.650632    6.840734
C     1.457074   19.658814    6.856546
C    14.285320   19.656430    6.838765
C     2.878099   19.656734    6.840279
C    15.708244   19.658315    6.855311
C    32.777199   19.659444    6.857200
C    18.558759   19.659473    6.858888
C    31.355934   19.659816    6.843396
C    19.980186   19.660053    6.845714
C    22.822792   19.659972    6.843345
C    27.092533   19.660066    6.852412
C    28.514005   19.659913    6.841946
C    24.244292   19.660060    6.854358
Li    0.027718   19.652366    4.971881
Li    0.030191   14.720391    4.972219
Li    0.029515    9.788512    4.972133
Li    0.026697    4.856238    4.971769
Li    4.303644   17.176966    4.971438
Li    4.306064   12.257203    4.973280
Li    4.290653    7.335884    4.960463
Li    4.290158    2.385930    4.965408
Li    8.572487    4.871016    4.935198
Li    8.580975    9.809708    4.962391
Li    8.585006   14.718848    4.970578
Li    8.589289   19.629834    4.972327
Li   12.869715   17.177324    4.970113
Li   12.870531   12.262574    4.969746
Li   12.882287    7.332376    4.969232
Li   12.890690    2.374386    4.960269
Li   17.139934   19.650950    4.972091
Li   17.137556   14.720749    4.972035
Li   17.139241    9.791041    4.971343
Li   17.148663    4.856338    4.970860
Li   21.400812   17.185255    4.968219
Li   21.400918   12.254808    4.969779
Li   21.402580    7.323438    4.972700
Li   21.402608    2.390097    4.972743
Li   25.659680   19.653738    4.967132
Li   25.660095   14.720171    4.963661
Li   25.659711    9.787361    4.970584
Li   25.659640    4.855928    4.972645
Li   29.925131   17.185240    4.967346
Li   29.925236   12.254657    4.969101
Li   29.924242    7.323774    4.971404
Li   29.924148    2.389982    4.971308
C    10.010068    4.865183    3.097533
C     7.156065    4.865288    3.087173
C     7.867817    6.101908    3.086427
C     9.298233    6.101791    3.092703
C    27.093553   14.728618    3.076554
C    24.242401   14.728703    3.074705
C    24.953762   15.964609    3.076516
C    26.382342   15.964542    3.077412
C     7.868085    3.628559    3.091890
C     9.298318    3.628525    3.096036
C    11.429591    7.331459    3.097496
C    10.006463    7.331966    3.106499
C     7.159707    7.332006    3.095682
C     7.868219    8.561669    3.081269
C     9.298076    8.561823    3.085456
C    24.953652   13.492661    3.073725
C    26.382436   13.492765    3.074637
C    28.512546   17.194782    3.076816
C    27.090312   17.194654    3.088459
C    24.245770   17.194640    3.087790
C    24.953663   18.424681    3.076294
C    26.382451   18.424763    3.077046
C     7.868486    1.168433    3.099151
C     9.298209    1.168417    3.099397
C    12.140871    1.162448    3.086117
C     5.025734    1.162632    3.085176
C    33.494174    1.168848    3.082835
C     3.595969    1.162433    3.079572
C    16.412915    1.168643    3.082648
C     0.753875    1.168671    3.083053
C    13.570903    1.162366    3.077732
C    17.841988    1.168704    3.082351
C    20.683516    1.162945    3.080871
C    29.223735    1.163102    3.078604
C    30.652587    1.163188    3.080689
C    24.953696    1.168889    3.078517
C    22.112409    1.162951    3.079826
C    26.382384    1.168940    3.079078
C    10.006604    2.398513    3.112493
C     7.159888    2.398418    3.108085
C     5.736772    2.398729    3.091291
C    14.282437    2.398868    3.079393
C     2.884499    2.398902    3.078774
C    11.429673    2.398710    3.098062
C    31.363584    2.399061    3.083262
C     1.461775    2.398854    3.091609
C    18.549993    2.398763    3.092738
C    32.786067    2.398947    3.093286
C    15.705256    2.398821    3.091633
C    22.823510    2.398934    3.081318
C    27.090176    2.398989    3.090672
C    19.972521    2.398932    3.082599
C    28.512504    2.399043    3.079601
C    24.245837    2.398933    3.090633
C    12.141063    3.634708    3.099541
C    33.493949    3.628999    3.080457
C     3.595800    3.634870    3.081266
C    16.412983    3.629090    3.081598
C    20.683611    3.634731    3.083345
C    30.652523    3.634853    3.082930
C     0.753913    3.629051    3.080556
C     5.025366    3.634849    3.087509
C    13.570856    3.635019    3.088127
C    17.842226    3.628915    3.079810
C    29.223776    3.634917    3.081940
C    24.953583    3.628901    3.079975
C    22.112372    3.634696    3.083140
C    26.382478    3.629061    3.080549
C    27.093432    4.864873    3.082937
C    31.360405    4.864976    3.092555
C     1.465002    4.865051    3.081757
C    14.279008    4.864895    3.098594
C    18.553392    4.865018    3.080066
C    22.820196    4.864804    3.093050
C    28.515802    4.864902    3.092594
C    32.782822    4.865092    3.080749
C     2.887753    4.864994    3.091164
C    11.432915    4.864934    3.113639
C    15.701880    4.865037    3.084437
C    19.975908    4.864913    3.092289
C    24.242475    4.864844    3.081600
C     5.733031    4.865089    3.098281
C    24.953655    6.100658    3.083056
C    29.223676    6.094846    3.080094
C    33.494078    6.100937    3.081875
C    16.412945    6.100895    3.083461
C    20.683556    6.094983    3.081114
C    26.382378    6.100589    3.083621
C    30.652622    6.095016    3.080806
C     0.753846    6.100924    3.082146
C    17.842055    6.100993    3.081228
C    22.112471    6.094922    3.081211
C     3.595792    6.095172    3.078297
C    12.140921    6.095184    3.098644
C    13.570843    6.095062    3.089060
C     5.025390    6.095364    3.082412
C    24.245802    7.330592    3.093075
C    22.823552    7.330775    3.082196
C    27.090217    7.330580    3.093151
C    31.363665    7.330952    3.082700
C    18.549968    7.331082    3.092175
C    28.512489    7.330825    3.080606
C    32.786087    7.331005    3.092586
C    15.705043    7.331156    3.092675
C    19.972484    7.330981    3.082080
C     1.461769    7.331089    3.090942
C    14.282030    7.331133    3.083237
C     2.884464    7.331208    3.076891
C     5.736692    7.331481    3.082516
C    24.953657    8.560650    3.080814
C    29.223810    8.566647    3.081694
C    22.112356    8.566732    3.082764
C    26.382417    8.560678    3.081357
C    20.683573    8.566796    3.082969
C    33.494158    8.561096    3.080599
C    16.412618    8.561169    3.080883
C    30.652596    8.566725    3.082760
C    17.841947    8.561171    3.080271
C     3.596034    8.567524    3.077119
C     0.754070    8.561264    3.080567
C    13.570471    8.567310    3.082825
C    12.140932    8.567443    3.088360
C     5.025615    8.567390    3.078415
C    27.093524    9.796640    3.081876
C    24.242504    9.796691    3.080520
C    22.820187    9.796712    3.092219
C    28.515792    9.796636    3.091871
C    18.553051    9.797023    3.081372
C    31.360590    9.796768    3.093138
C    19.975561    9.796878    3.092632
C    32.783000    9.797016    3.081766
C    15.701446    9.797316    3.081721
C     1.465290    9.797296    3.082532
C    14.278550    9.797313    3.091160
C     2.888140    9.797385    3.090914
C     5.733870    9.797415    3.088281
C    10.009622    9.797667    3.080250
C    11.432752    9.797471    3.093206
C     7.156940    9.797662    3.075909
C    24.953749   11.032421    3.079715
C    26.382324   11.032406    3.080351
C    29.223802   11.026629    3.079025
C    22.112310   11.026792    3.079655
C    16.412447   11.032914    3.082606
C    20.683354   11.026933    3.080567
C    33.494383   11.032914    3.083283
C    17.841730   11.033065    3.082348
C    30.652771   11.026871    3.080841
C     0.754300   11.032937    3.083864
C     3.596368   11.027353    3.080348
C    12.140822   11.027459    3.079144
C    13.570354   11.027191    3.078295
C     7.868377   11.033386    3.073628
C     5.025932   11.027390    3.078791
C     9.298325   11.033468    3.074575
C    27.090334   12.262546    3.088222
C    24.245734   12.262651    3.087605
C    22.823493   12.262793    3.078581
C    31.363868   12.262713    3.082765
C    19.972194   12.262947    3.081455
C    28.512517   12.262640    3.077714
C    14.281622   12.263057    3.078763
C    18.549502   12.262846    3.092786
C     1.462417   12.262980    3.094141
C    15.704461   12.262977    3.091610
C    32.786439   12.262780    3.093778
C     5.737248   12.263153    3.080198
C    10.006554   12.263274    3.087424
C     2.885280   12.263071    3.082478
C    11.429641   12.263184    3.079379
C     7.160263   12.263304    3.087146
C    29.223944   13.498546    3.078692
C    16.412344   13.492969    3.080476
C    20.683319   13.498616    3.080901
C    33.494415   13.492716    3.081466
C     3.596652   13.498808    3.082474
C    13.570285   13.498867    3.078390
C    17.841677   13.492909    3.080214
C    22.112217   13.498575    3.079088
C    30.652665   13.498529    3.081140
C     0.754527   13.492878    3.082158
C    12.140877   13.498858    3.079572
C     7.868552   13.493099    3.076973
C     5.026001   13.498811    3.082069
C     9.298349   13.493098    3.076526
C    10.009605   14.728761    3.079210
C    14.278470   14.728727    3.089109
C    18.552826   14.728783    3.080373
C    31.360660   14.728608    3.091145
C     1.465632   14.728719    3.083217
C     5.734275   14.728685    3.091663
C    11.432702   14.728734    3.089639
C    15.701285   14.728739    3.080596
C    19.975495   14.728721    3.090545
C    28.515817   14.728628    3.087835
C    32.783188   14.728749    3.081211
C     2.888457   14.728634    3.092515
C     7.157328   14.728776    3.080061
C    22.820176   14.728625    3.087609
C     7.868637   15.964420    3.080862
C    12.140826   15.958597    3.077499
C    16.412428   15.964476    3.081705
C    33.494416   15.964463    3.082437
C     3.596494   15.958512    3.079396
C     9.298251   15.964415    3.080369
C    13.570427   15.958579    3.076057
C    17.841641   15.964496    3.081153
C     0.754416   15.964482    3.083394
C     5.026107   15.958552    3.079596
C    20.683239   15.958665    3.077884
C    29.223844   15.958649    3.076180
C    30.652729   15.958690    3.078050
C    22.112345   15.958763    3.076647
C     7.160295   17.194096    3.092678
C     5.737264   17.194445    3.082503
C    10.006587   17.194070    3.092000
C    14.281720   17.194521    3.078522
C     1.462255   17.194339    3.093686
C    11.429716   17.194427    3.081028
C    15.704616   17.194423    3.091188
C    32.786282   17.194545    3.092265
C     2.885161   17.194504    3.081691
C    18.549617   17.194515    3.091305
C    31.363813   17.194673    3.080656
C    19.972237   17.194582    3.079501
C    22.823452   17.194608    3.077672
C     7.868389   18.424168    3.084042
C    12.141031   18.429995    3.082962
C     5.025859   18.430096    3.084755
C     9.298407   18.424047    3.083308
C     3.596386   18.430113    3.083600
C    16.412556   18.424537    3.080864
C    33.494192   18.424514    3.080768
C    13.570468   18.430155    3.080609
C     0.754252   18.424550    3.082214
C    20.683459   18.430414    3.080239
C    17.841843   18.424459    3.079844
C    30.652620   18.430511    3.080494
C    29.223823   18.430581    3.078676
C    22.112297   18.430496    3.079282
C    10.009813   19.660038    3.090589
C     7.157026   19.660070    3.091200
C     5.733876   19.660122    3.098491
C    11.432979   19.660052    3.097501
C     1.465215   19.660332    3.083533
C    14.278795   19.660087    3.090738
C     2.888090   19.660208    3.093241
C    15.701663   19.660369    3.081849
C    32.782849   19.660538    3.081269
C    18.553117   19.660500    3.080884
C    31.360494   19.660568    3.091991
C    19.975612   19.660443    3.091460
C    22.820192   19.660477    3.089670
C    27.093587   19.660726    3.078561
C    28.515765   19.660628    3.089307
C    24.242506   19.660679    3.077168
