524       
Geometry optimisation iteration:     8
Li   13.141532    2.320139    8.579675
Li   10.698111    0.894832    8.589046
Li   10.826346    6.286052    8.646950
Li   10.756777    3.598343    8.693384
Li    8.359566    4.903304    8.684630
Li    7.869002    1.944028    8.761277
Li   13.708382    5.337345    8.733310
Li   12.014722    4.134497   10.961288
Li    9.668063    2.902091   11.012197
Li   12.151136    1.128226   11.312407
Li    9.576633    5.879711   11.468052
Li   10.990255    3.476678   14.201706
C    17.121647    2.391438    3.379694
C    15.699057    2.391389    3.391976
C    19.256912    3.624535    3.369266
C    17.834231    3.624606    3.374452
C    21.392390    4.857621    3.366604
C    19.969595    4.857744    3.366617
C    17.121548    4.857758    3.380650
C    22.105216    6.090810    3.366811
C    19.256908    6.090843    3.369669
C    23.528062    6.090665    3.367706
C    24.240933    7.323750    3.369984
C     0.037443   12.255548    3.361453
C    32.783876   12.255632    3.363110
C     2.173160   13.488466    3.360517
C     0.750422   13.488545    3.360030
C     4.308756   14.721371    3.361330
C     2.886130   14.721457    3.359720
C     0.037345   14.721530    3.362846
C     5.021671   15.954353    3.363238
C     2.173000   15.954441    3.362167
C     6.444123   15.954197    3.366092
C     7.156993   17.187083    3.374564
C    19.257056    1.158321    3.384497
C    17.834301    1.158213    3.381894
C    14.986271    1.158186    3.395382
C    13.563599    1.158106    3.409400
C    21.392479    2.391432    3.383124
C    19.969689    2.391390    3.377075
C    22.105210    3.624532    3.375398
C    23.528033    3.624519    3.381106
C    14.986315    3.624649    3.405065
C    24.240922    4.857593    3.373922
C    25.663717    4.857556    3.377626
C    15.699006    4.857962    3.398048
C    17.834163    6.091049    3.378197
C    26.376646    6.090649    3.372277
C    27.799448    6.090582    3.374792
C    21.392469    7.323821    3.370866
C    19.969596    7.323982    3.373995
C    25.663764    7.323643    3.369396
C    28.512405    7.323629    3.371095
C    23.528087    8.556783    3.377507
C    26.376664    8.556734    3.372572
C    27.799454    8.556641    3.369818
C    32.783892    9.789656    3.369147
C    29.935160    9.789618    3.367803
C     2.173126   11.022547    3.376859
C     0.750437   11.022582    3.369315
C    32.070894   11.022612    3.364262
C    30.648095   11.022663    3.368096
C     4.308772   12.255450    3.377776
C     2.886211   12.255503    3.370079
C     5.021881   13.488402    3.369983
C     6.444288   13.488321    3.376140
C    32.070816   13.488615    3.368790
C     7.157381   14.721230    3.370366
C     8.579668   14.721112    3.375601
C    32.783784   14.721594    3.370512
C     0.750303   15.954535    3.366116
C     9.292716   15.953936    3.375928
C    10.714984   15.953861    3.380892
C     4.308464   17.187368    3.368522
C     2.885873   17.187442    3.369126
C     8.579364   17.186842    3.378768
C    11.428074   17.186672    3.386394
C     6.443681   18.420054    3.385917
C     9.292289   18.419650    3.394343
C    10.714840   18.419522    3.395850
C    15.698942   19.652644    3.389610
C    12.850626   19.652530    3.403889
C    12.850656    2.391291    3.429473
C    26.376638    3.624584    3.391623
C    13.563685    3.624656    3.428358
C    28.512428    4.857616    3.385617
C    14.986204    6.091087    3.411680
C    17.121536    7.323972    3.389288
C    29.935188    7.323620    3.373584
C    22.105269    8.556902    3.380039
C    19.256932    8.556911    3.385445
C    32.070923    8.556651    3.373545
C    30.648175    8.556651    3.370033
C     0.037411    9.789642    3.374706
C    24.240946    9.789822    3.388802
C    25.663721    9.789713    3.383253
C    28.512357    9.789714    3.372054
C    29.935075   12.255641    3.377428
C     9.292813   13.488299    3.388862
C    30.648030   13.488672    3.380218
C    11.428114   14.721070    3.387341
C    32.070754   15.954541    3.383545
C     0.037239   17.187490    3.377000
C    12.850509   17.186664    3.388591
C     5.021188   18.420295    3.382495
C     2.172801   18.420410    3.381153
C    14.986160   18.419705    3.391137
C    13.563518   18.419539    3.392866
C    17.121702   19.652840    3.387889
C     7.156389   19.652853    3.408480
C     8.578946   19.652620    3.413097
C    11.427891   19.652455    3.410923
C     9.291916    1.157975    3.437704
C    22.105283    1.158433    3.403616
C    10.714714    1.157937    3.433630
C    11.427904    2.391228    3.446866
C    24.240890    2.391543    3.399453
C    25.663679    2.391625    3.404706
C    27.799408    3.624637    3.394962
C    12.850718    4.857911    3.446733
C    29.935167    4.857701    3.390136
C    30.648166    6.090716    3.384128
C    13.563622    6.091259    3.436004
C    15.698818    7.324242    3.404874
C    32.783858    7.323727    3.386408
C    17.834128    8.557073    3.392234
C     0.750300    8.556750    3.391513
C    21.392494    9.789843    3.394493
C     2.885952    9.789704    3.397476
C    26.376614   11.022707    3.393403
C     5.021665   11.022654    3.399873
C    27.799383   11.022674    3.383504
C    28.512333   12.255696    3.389928
C     7.157318   12.255508    3.395653
C     8.579569   12.255528    3.402410
C    10.714996   13.488302    3.393848
C    29.935045   14.721616    3.397340
C    12.850386   14.721095    3.393034
C    13.563405   15.953869    3.391655
C    30.648046   15.954590    3.398977
C    32.783736   17.187498    3.386546
C    15.698853   17.186799    3.396329
C     0.750151   18.420447    3.384821
C    17.834344   18.419810    3.399401
C     4.308082   19.653263    3.398381
C    19.969775   19.652896    3.402454
C     6.443196    1.158289    3.428947
C    23.528068    1.158568    3.413241
C     5.020698    1.158542    3.421713
C    28.512368    2.391705    3.408763
C    30.648133    3.624746    3.401773
C    32.070883    6.090737    3.391273
C     0.037298    7.323780    3.396998
C    14.985968    8.557133    3.415254
C     2.172851    8.556800    3.405490
C    19.969694    9.789920    3.396910
C    17.121406    9.789897    3.403800
C     4.308440    9.789770    3.412209
C    23.528080   11.022686    3.407306
C     6.444044   11.022689    3.411316
C    22.105315   11.022732    3.410821
C    11.428040   12.255606    3.409764
C    13.563280   13.488363    3.403478
C    14.985910   15.954018    3.397889
C    17.121567   17.186977    3.403742
C    32.070748   18.420482    3.399992
C    19.257117   18.419993    3.409952
C     2.885571   19.653371    3.396136
C     0.037166   19.653388    3.397696
C    21.392562   19.653090    3.414665
C    26.376633    1.158697    3.423071
C     2.172619    1.158762    3.410281
C     0.750062    1.158735    3.407995
C    27.799377    1.158800    3.421433
C    32.070767    1.158830    3.409378
C    30.648085    1.158768    3.413489
C     8.578665    2.391121    3.460743
C     7.155948    2.391283    3.455868
C    29.935106    2.391788    3.408533
C    32.783733    2.391779    3.410743
C    32.070822    3.624798    3.406140
C    10.714763    3.624448    3.469613
C    32.783804    4.857789    3.404148
C     0.037179    4.857868    3.414066
C    11.427991    4.857966    3.470259
C     0.750089    6.090872    3.414192
C     2.885540    7.323932    3.428636
C    12.850594    7.324387    3.446544
C     5.021098    8.557033    3.439971
C    13.563413    8.557365    3.432228
C    15.698685    9.790017    3.411640
C     7.156864    9.790074    3.439501
C    12.850357    9.790220    3.431730
C     9.292579   11.022894    3.425782
C    19.256907   11.022722    3.410628
C    17.834119   11.022786    3.411090
C    10.714847   11.022947    3.426243
C    14.985786   11.022813    3.414929
C    13.563273   11.022905    3.419612
C    25.663732   12.255611    3.414519
C    24.240993   12.255619    3.423559
C    12.850271   12.255651    3.410735
C    15.698619   12.255610    3.413846
C    14.985769   13.488431    3.408444
C    27.799365   13.488609    3.410497
C    15.698692   14.721187    3.407715
C    17.121358   14.721287    3.416772
C    28.512328   14.721579    3.415621
C    17.834218   15.954089    3.417635
C    19.969775   17.187096    3.429538
C    29.935065   17.187538    3.414940
C    22.105323   18.420210    3.437751
C    30.648042   18.420455    3.412695
C    32.783730   19.653421    3.402993
C    24.240952   19.653288    3.435638
C    29.935082   19.653454    3.419179
C     2.885339    2.391715    3.427828
C     4.307788    2.391648    3.436959
C     0.037168    2.391801    3.413909
C     0.750028    3.624822    3.421284
C     2.172529    3.624824    3.431933
C     9.291874    3.624460    3.479006
C     2.885303    4.857876    3.442288
C     2.172592    6.090941    3.429735
C    10.714794    6.091323    3.480426
C     4.307963    7.324056    3.446776
C    11.427942    7.324516    3.466746
C    10.714769    8.557528    3.461444
C     6.443501    8.557237    3.454771
C     8.579234    9.790225    3.446152
C    11.427975    9.790282    3.441614
C    19.969691   12.255610    3.424964
C    21.392457   12.255614    3.427289
C    17.121286   12.255622    3.416325
C    17.834115   13.488438    3.422871
C    19.256874   13.488497    3.430618
C    26.376661   13.488595    3.425952
C    19.969720   14.721330    3.439573
C    19.256945   15.954268    3.430308
C    27.799426   15.954536    3.434344
C    21.392516   17.187287    3.443090
C    28.512389   17.187488    3.432289
C    27.799415   18.420498    3.438855
C    23.528076   18.420383    3.447132
C    25.663730   19.653408    3.438146
C    28.512379   19.653413    3.428827
C     5.020406    3.624687    3.458168
C     6.442913    3.624620    3.470248
C     4.307687    4.857943    3.458121
C     8.578653    4.857911    3.490639
C     7.155908    4.857911    3.485672
C     5.020535    6.091055    3.465426
C     9.291947    6.091334    3.490819
C     8.578855    7.324556    3.483215
C     7.156217    7.324387    3.477302
C     9.292237    8.557542    3.467482
C    22.105327   13.488474    3.443180
C    23.528105   13.488520    3.442449
C    21.392463   14.721406    3.448648
C    25.663758   14.721503    3.445816
C    24.241011   14.721428    3.453954
C    22.105335   15.954341    3.454863
C    26.376724   15.954490    3.449732
C    25.663763   17.187499    3.456065
C    24.240992   17.187410    3.459190
C    26.376677   18.420434    3.448456
C     6.443048    6.091209    3.480523
C    23.528090   15.954448    3.459689
C    14.303109    2.382328    6.595414
C    15.727164    2.383905    6.591263
C    16.436087    3.618616    6.591567
C    15.727014    4.854471    6.584629
C    14.302587    4.856588    6.584235
C    31.368171   12.250198    6.617340
C    32.790055   12.250225    6.613313
C    33.502432   13.482668    6.613919
C    32.789987   14.715289    6.619470
C    31.368125   14.715693    6.629324
C    13.587523    1.141681    6.602875
C    16.432058    1.149143    6.599101
C    18.565545    2.384823    6.608325
C    17.856243    3.619347    6.599643
C    18.565894    4.853928    6.601769
C    16.433540    6.090421    6.593321
C    26.388287    8.551564    6.617544
C    30.655743   11.017485    6.614879
C    33.502238   11.017513    6.614308
C     1.467494   12.250226    6.615366
C     0.755197   13.482547    6.610987
C     1.467389   14.714734    6.610064
C    33.502075   15.947892    6.620109
C     9.293083   18.399587    6.606723
C    17.854218    1.151294    6.608455
C    20.698833    3.619337    6.612018
C    13.586430    3.619436    6.615248
C    19.987526    4.853163    6.604569
C    26.388469    6.085527    6.618110
C    24.966908    6.085819    6.616288
C    22.120830    6.086152    6.608153
C    20.698704    6.086864    6.605732
C    17.855242    6.087751    6.600324
C    13.586423    6.097045    6.598155
C    27.100675    7.318555    6.615954
C    28.522104    7.318540    6.615872
C    24.254560    7.318824    6.614472
C    22.832622    7.319443    6.612728
C    15.720696    7.324491    6.601913
C    29.234249    8.551481    6.614388
C    24.966550    8.551937    6.619923
C    27.100265    9.784596    6.621838
C    28.521971    9.784555    6.616643
C    24.253969    9.784835    6.629920
C    31.368014    9.784546    6.613664
C    32.789759    9.785006    6.615378
C     0.754919   11.018073    6.617737
C     3.602315   13.482378    6.615379
C    30.655816   13.482970    6.626325
C     2.889516   14.714257    6.608837
C     9.296954   15.942893    6.610146
C     7.873407   15.943608    6.612083
C     5.023732   15.945273    6.609637
C     3.601269   15.946364    6.609097
C     0.754736   15.946997    6.612712
C    30.655784   15.948543    6.641860
C    10.011152   17.172661    6.605378
C    11.436436   17.172638    6.604804
C     7.158038   17.173833    6.609361
C     5.734968   17.176678    6.610934
C    32.789592   17.180588    6.628749
C    12.154181   18.401756    6.605441
C     7.869595   18.403060    6.608978
C    10.007527   19.631382    6.615532
C    11.439856   19.630485    6.610492
C     7.152606   19.633861    6.612618
C    14.295693   19.637100    6.602153
C    15.719019   19.642668    6.601799
C     7.862960    1.140365    6.624565
C    11.439780    2.382088    6.643042
C    19.987426    2.385628    6.615833
C    22.120754    3.619384    6.618221
C    12.154905    3.619119    6.639450
C    27.100768    4.852505    6.626881
C    28.522160    4.852522    6.628672
C    24.254635    4.852615    6.619304
C    22.832806    4.852750    6.614165
C    29.234445    6.085493    6.622507
C    31.367983    7.318608    6.621590
C    19.986839    7.320200    6.607939
C    18.564428    7.321652    6.608019
C    14.295709    7.329647    6.611535
C    30.655780    8.551735    6.614597
C    22.120121    8.552447    6.618212
C    33.501684    8.552012    6.624212
C    20.697732    8.553419    6.616973
C    22.831803    9.785451    6.631367
C     1.466713    9.785442    6.630494
C    24.966022   11.017670    6.642281
C    28.521851   12.250259    6.632043
C     2.889657   12.250580    6.620039
C     5.024795   13.482390    6.619537
C    29.234100   13.483113    6.637826
C    10.011831   14.712908    6.618040
C    11.435540   14.713089    6.617998
C     7.160414   14.713117    6.616347
C     5.737365   14.713798    6.614513
C    12.150364   15.943961    6.612949
C    14.289718   17.176355    6.614055
C     2.888161   17.178280    6.611344
C     1.466337   17.179631    6.614866
C    31.367924   17.181415    6.641431
C    13.579059   18.405563    6.604876
C     5.020929   18.408123    6.613615
C    16.427728   18.410671    6.615928
C     3.598910   18.410980    6.617282
C     5.729999   19.640540    6.617187
C    18.563836   19.645125    6.623820
C    12.156385    1.142126    6.632039
C     5.016884    1.146642    6.632743
C    20.698461    1.152115    6.632773
C    26.388448    3.619479    6.636437
C    24.966822    3.619460    6.633090
C    31.368138    4.852461    6.635238
C    30.655779    6.085683    6.625503
C    32.789445    7.319144    6.626966
C     0.754230    8.553000    6.633451
C    17.851867    8.554241    6.614981
C    16.428619    8.556446    6.617200
C    19.984928    9.786020    6.626220
C    29.234066   11.017375    6.619802
C    22.118969   11.018039    6.645398
C     3.601574   11.018488    6.637675
C     9.297642   13.482709    6.629035
C     7.874139   13.482454    6.628934
C    14.287291   14.714395    6.624725
C    13.574642   15.944904    6.616480
C    15.713984   17.178463    6.619578
C    17.851190   18.412457    6.626254
C     0.753903   18.412271    6.622431
C    33.501415   18.413588    6.629875
C     2.886643   19.643553    6.626886
C     9.292720    1.141960    6.648511
C     3.596819    1.149954    6.640150
C     0.753588    1.151292    6.638676
C    10.009786    2.381889    6.660752
C     7.145817    2.379972    6.647438
C    24.254545    2.386328    6.644485
C    22.832690    2.386125    6.636016
C    29.234401    3.619455    6.639545
C    30.655792    3.619336    6.640045
C    32.789559    4.852560    6.639867
C    11.440850    4.855242    6.666496
C    33.501563    6.085871    6.638804
C     1.465769    7.319836    6.651003
C    13.578891    8.562066    6.635170
C    18.562160    9.786966    6.625348
C     2.888640    9.786583    6.643817
C    15.714349    9.788336    6.627882
C    26.387940   11.017463    6.634295
C    20.696379   11.018668    6.642491
C    17.848729   11.018949    6.632869
C    27.100100   12.250283    6.643470
C    24.253420   12.250428    6.661387
C     7.160511   12.251763    6.644455
C     5.737442   12.250959    6.638050
C    12.149588   13.482949    6.628211
C    13.573665   13.483183    6.627857
C    15.711385   14.714926    6.630079
C    28.521901   14.716002    6.655679
C    16.424933   15.946898    6.631313
C    18.561644   17.179857    6.644238
C    30.655655   18.414373    6.651390
C     1.465246   19.645497    6.629614
C    19.986268   19.646496    6.637872
C    32.789266   19.646625    6.638109
C    22.120589    1.152837    6.645600
C    33.501385    1.152350    6.640638
C    29.234248    1.153381    6.657742
C    30.655599    1.152934    6.650271
C     5.724375    2.383052    6.654718
C     1.465379    2.385048    6.650423
C     2.885988    2.383971    6.655107
C    31.368013    2.386150    6.645436
C    32.789449    2.385764    6.643700
C    27.100599    2.386433    6.651626
C    28.522044    2.386409    6.649827
C    33.501747    3.619177    6.645978
C     0.753745    3.619007    6.652780
C     1.465417    4.852896    6.661632
C     0.753764    6.086572    6.650257
C    12.156321    6.093677    6.665900
C    14.289957    9.790376    6.637223
C     5.023962   11.019557    6.650858
C    16.425068   11.019660    6.632962
C    12.150320   11.022016    6.650597
C    13.574606   11.021643    6.641111
C    22.831075   12.250704    6.664306
C    18.560320   12.251197    6.644863
C    19.983375   12.250921    6.652619
C    14.287312   12.252019    6.634764
C    15.711352   12.251577    6.633871
C    10.011790   12.252538    6.645891
C    11.435480   12.252832    6.640945
C    16.423825   13.483228    6.636686
C    17.847377   13.483288    6.645173
C    18.560145   14.715378    6.654180
C    17.848408   15.947623    6.642858
C    29.234105   15.948880    6.657878
C    31.367780   19.647503    6.647632
C    26.388293    1.153450    6.667180
C    24.966697    1.153226    6.666079
C     9.295247    3.617178    6.690253
C     3.596337    3.618852    6.674787
C     2.886128    4.853742    6.677263
C     2.887211    7.321426    6.669872
C    11.441027    7.334647    6.673636
C     3.599616    8.554005    6.668907
C    12.154428    8.564391    6.659880
C    11.436422    9.793231    6.666160
C     9.297075   11.022511    6.668788
C     7.873544   11.021275    6.671386
C    26.387803   13.483144    6.664287
C    20.695619   13.483291    6.670338
C    19.983206   14.715655    6.669603
C    19.984450   17.180774    6.662063
C    28.522009   17.181779    6.672521
C    20.697299   18.413374    6.660924
C    29.234125   18.414877    6.666601
C    28.521964   19.647904    6.669229
C     5.014801    3.619291    6.680527
C     3.597748    6.087415    6.687618
C     5.021773    8.556450    6.690299
C     5.735414    9.788066    6.681344
C    10.011271    9.792770    6.684550
C    22.118342   13.483261    6.678603
C    20.696011   15.948055    6.678919
C    22.119737   18.414318    6.678860
C    22.832333   19.647278    6.670803
C    27.100502   19.648017    6.679365
C    10.011248    4.854461    6.709829
C     5.725065    4.854367    6.705510
C     5.018425    6.090069    6.705660
C     7.158516    9.790872    6.693638
C    27.100161   14.716019    6.672411
C    22.830892   14.715817    6.694465
C    22.118604   15.948618    6.694497
C    24.254297   19.647875    6.681038
C     7.864737    3.617027    6.710726
C     7.146298    4.856492    6.714428
C     5.731666    7.323956    6.712768
C     9.293831    8.565527    6.710930
C    24.965812   13.483200    6.675935
C    24.253358   14.715907    6.694460
C    22.831419   17.181332    6.697788
C    26.388186   18.415003    6.692639
C     7.153205    7.330550    6.728015
C    10.009184    7.334460    6.712629
C     7.870084    8.560885    6.717919
C    24.253750   17.181824    6.704385
C    27.100307   17.181876    6.689397
C    24.966304   18.414770    6.697674
C     7.863099    6.096517    6.733536
C     9.293006    6.097108    6.736537
C    24.966016   15.948793    6.702081
C    26.387996   15.948883    6.690829
