514       
Geometry optimisation iteration:    12
Li   10.888514    6.070542    8.532924
Li    6.324169    6.044652    8.531296
C     6.442984    1.160480    3.357549
C     9.291421    1.160449    3.356372
C     8.578542    2.393335    3.355943
C     7.155805    2.393372    3.356687
C     6.442853    3.626351    3.360830
C    10.714093    3.626314    3.362392
C     9.291338    3.626245    3.360982
C     8.578409    4.859379    3.367897
C     7.155636    4.859423    3.367181
C     9.291231    6.092632    3.375733
C     6.442759    6.092654    3.373448
C     8.578377    7.325922    3.380484
C    23.527289   11.024649    3.357044
C    26.375894   11.024616    3.355973
C    25.663000   12.257531    3.351982
C    24.240147   12.257589    3.353055
C    23.527280   13.490569    3.352811
C    27.798786   13.490524    3.355214
C    26.375887   13.490531    3.351881
C    25.662999   14.723589    3.351317
C    24.240075   14.723599    3.352296
C    26.375881   15.956683    3.354927
C    23.527258   15.956668    3.355607
C    25.662983   17.189714    3.357646
C    10.714096    1.160443    3.358740
C     5.020246    1.160558    3.361702
C     4.307257    2.393472    3.363123
C    12.849628    2.393456    3.365394
C    11.426961    2.393307    3.360805
C     5.020056    3.626435    3.363175
C    11.426913    4.859415    3.369238
C     4.307087    4.859554    3.368360
C    12.849662    4.859468    3.371271
C    10.714081    6.092650    3.375266
C     5.019911    6.092696    3.372593
C     7.155557    7.325891    3.379206
C    11.426893    7.325921    3.379588
C     4.307073    7.325884    3.376423
C     9.291271    8.559138    3.382275
C    27.798743    8.558801    3.367040
C     6.442794    8.559049    3.380249
C    10.714034    8.559102    3.381951
C    23.527313    8.558823    3.366337
C    26.375880    8.558820    3.365196
C    25.662968    9.791734    3.359327
C     8.578449    9.792109    3.381223
C    21.391727    9.791805    3.367599
C    24.240151    9.791771    3.360429
C    28.511627    9.791753    3.364901
C    27.798737   11.024625    3.358733
C    22.104517   11.024695    3.361622
C    21.391676   12.257661    3.361539
C    29.934505   12.257605    3.365128
C    28.511687   12.257547    3.359170
C    22.104434   13.490629    3.357816
C    28.511682   14.723564    3.359068
C    21.391658   14.723609    3.360921
C    29.934566   14.723588    3.365427
C    27.798819   15.956630    3.358219
C    22.104423   15.956629    3.360331
C    24.240096   17.189695    3.358486
C    28.511667   17.189662    3.364584
C    21.391688   17.189612    3.365914
C    26.375885   18.422669    3.363542
C    10.714037   18.422233    3.365522
C    23.527293   18.422649    3.364062
C    27.798737   18.422630    3.366150
C     6.443103   18.422187    3.364892
C     9.291372   18.422186    3.363584
C     8.578598   19.655136    3.358474
C    25.662981   19.655578    3.367738
C     4.307428   19.655213    3.366885
C     7.155903   19.655147    3.359568
C    11.426874   19.655101    3.363771
C    22.104569    1.160811    3.376447
C    26.375889    1.160833    3.373148
C    30.647273    1.160751    3.380490
C    14.985022    1.160634    3.374947
C    19.256169    1.160761    3.381227
C     2.171770    1.160645    3.372770
C    23.527344    1.160827    3.373735
C    27.798693    1.160838    3.374770
C    32.070028    1.160739    3.381564
C     0.749085    1.160670    3.378030
C    13.562395    1.160536    3.369298
C    17.833442    1.160741    3.381770
C    15.697904    2.393601    3.377554
C    19.968977    2.393741    3.382614
C    24.240151    2.393750    3.376614
C    28.511580    2.393722    3.378949
C     0.036281    2.393651    3.379117
C    17.120612    2.393666    3.381432
C    21.391766    2.393750    3.380411
C    25.662982    2.393747    3.375860
C    29.934417    2.393729    3.380744
C    32.782763    2.393676    3.381937
C     2.884520    2.393595    3.368971
C    32.070045    3.626691    3.382197
C    13.562473    3.626387    3.369958
C    17.833397    3.626692    3.383446
C    22.104502    3.626739    3.380830
C     2.171647    3.626590    3.372015
C    26.375866    3.626700    3.377865
C    14.985118    3.626565    3.375329
C    19.256148    3.626699    3.383882
C    23.527351    3.626720    3.378645
C    27.798734    3.626710    3.378785
C    30.647263    3.626695    3.382291
C     0.748974    3.626656    3.377252
C     0.036246    4.859712    3.379314
C    15.697891    4.859647    3.379428
C    19.968909    4.859753    3.383456
C    24.240113    4.859750    3.377591
C    17.120565    4.859678    3.382650
C    21.391714    4.859748    3.381315
C    25.663022    4.859746    3.376720
C    28.511616    4.859707    3.379214
C    32.782762    4.859675    3.381685
C     2.884335    4.859624    3.371589
C    29.934489    4.859755    3.380691
C    13.562483    6.092693    3.376807
C    17.833348    6.092749    3.383602
C    22.104446    6.092801    3.378125
C    32.070078    6.092752    3.380878
C     2.171590    6.092730    3.375568
C    14.985179    6.092744    3.379378
C    19.256149    6.092771    3.382759
C    23.527321    6.092811    3.375511
C    26.375833    6.092797    3.374460
C    27.798768    6.092775    3.375527
C    30.647262    6.092780    3.380034
C     0.748913    6.092744    3.378678
C    15.697906    7.325830    3.382244
C    19.968909    7.325781    3.379516
C    29.934469    7.325797    3.375933
C     0.036272    7.325786    3.379958
C    12.849666    7.325902    3.379468
C    17.120587    7.325795    3.382801
C    21.391704    7.325803    3.375935
C    24.240118    7.325813    3.370653
C    25.663002    7.325827    3.369641
C    28.511592    7.325810    3.373249
C    32.782772    7.325781    3.380295
C     2.884333    7.325819    3.376951
C     5.020023    8.558968    3.379000
C    13.562430    8.559051    3.381899
C    17.833381    8.558831    3.381324
C    32.070058    8.558795    3.377925
C     2.171655    8.558871    3.379203
C    14.985081    8.558882    3.382386
C    19.256132    8.558824    3.378083
C    22.104512    8.558810    3.369997
C    30.647285    8.558799    3.374891
C     0.748994    8.558824    3.380186
C     2.884563    9.791811    3.380154
C     7.155770    9.792055    3.380597
C    11.426899    9.792134    3.382063
C    15.697883    9.791849    3.382605
C    29.934446    9.791730    3.369399
C     0.036300    9.791792    3.380253
C     4.307241    9.791957    3.379562
C    12.849556    9.791988    3.382137
C    17.120586    9.791830    3.380752
C    19.968964    9.791774    3.373020
C    32.782807    9.791781    3.378430
C     5.020271   11.024821    3.379749
C     9.291349   11.024988    3.380066
C    13.562336   11.024913    3.382388
C    32.070077   11.024725    3.375428
C     2.171824   11.024747    3.381437
C    19.256145   11.024742    3.372744
C     6.442971   11.024918    3.379201
C    10.713990   11.024947    3.380687
C    14.984989   11.024767    3.382185
C    17.833427   11.024758    3.377872
C    30.647306   11.024670    3.370119
C     0.749126   11.024705    3.381561
C    32.782888   12.257661    3.377931
C     2.884782   12.257644    3.382160
C     7.155928   12.257797    3.378103
C    11.426789   12.257863    3.380025
C    17.120521   12.257693    3.378542
C     0.036401   12.257661    3.381361
C     4.307478   12.257738    3.380406
C     8.578543   12.257836    3.377866
C    12.849400   12.257763    3.381057
C    15.697838   12.257719    3.381332
C    19.968934   12.257694    3.368195
C    14.984909   13.490635    3.381114
C    30.647349   13.490576    3.368607
C     0.749230   13.490582    3.383276
C     5.020458   13.490642    3.379519
C    19.256113   13.490663    3.370387
C     9.291372   13.490729    3.376616
C    32.070139   13.490634    3.375183
C     2.171960   13.490611    3.383277
C     6.443109   13.490701    3.377330
C    10.713971   13.490698    3.377528
C    13.562231   13.490692    3.380944
C    17.833387   13.490649    3.376273
C    17.120515   14.723591    3.378186
C    32.782903   14.723583    3.378940
C     2.884869   14.723549    3.382622
C     7.155989   14.723566    3.375189
C     0.036455   14.723580    3.382543
C     4.307593   14.723548    3.379849
C     8.578611   14.723578    3.374218
C    11.426747   14.723612    3.376884
C    15.697782   14.723595    3.380643
C    19.968908   14.723627    3.367787
C    12.849358   14.723572    3.378787
C    30.647376   15.956606    3.370998
C     0.749266   15.956541    3.383307
C     5.020499   15.956471    3.376393
C    14.984866   15.956552    3.379892
C    19.256109   15.956594    3.371969
C    32.070155   15.956544    3.376952
C     2.172002   15.956484    3.382261
C     6.443131   15.956425    3.373287
C     9.291386   15.956410    3.371856
C    10.713966   15.956462    3.373106
C    13.562195   15.956481    3.378536
C    17.833364   15.956553    3.377092
C    32.782906   17.189518    3.380387
C     2.884862   17.189439    3.378761
C    12.849385   17.189390    3.374536
C    17.120516   17.189510    3.378972
C    29.934518   17.189586    3.369994
C     0.036439   17.189498    3.382126
C     4.307558   17.189368    3.374705
C     7.155969   17.189314    3.368615
C     8.578597   17.189264    3.367512
C    11.426765   17.189332    3.371387
C    15.697814   17.189459    3.379689
C    19.968932   17.189552    3.371627
C    22.104510   18.422576    3.367884
C    30.647308   18.422540    3.375856
C     0.749221   18.422444    3.380862
C    14.984958   18.422400    3.377436
C    19.256155   18.422490    3.376332
C    32.070097   18.422464    3.379499
C     2.171958   18.422360    3.377590
C     5.020379   18.422295    3.368741
C    13.562281   18.422298    3.373968
C    17.833422   18.422445    3.379281
C    19.968987   19.655433    3.377705
C    24.240181   19.655542    3.368479
C    28.511631   19.655542    3.372778
C    32.782851   19.655410    3.381474
C    12.849509   19.655247    3.368425
C    17.120566   19.655373    3.380193
C    21.391737   19.655480    3.373957
C    29.934433   19.655459    3.376315
C     0.036356   19.655320    3.380433
C     2.884727   19.655331    3.372525
C    15.697879   19.655298    3.378230
C    10.011207    4.845237    6.647009
C     7.160479    4.844927    6.638188
C    27.094414   14.718978    6.638041
C    24.246232   14.719036    6.636048
C     7.874773    3.609709    6.634392
C     9.296327    3.609722    6.638242
C     7.872459    6.084843    6.677639
C    24.959030   13.486056    6.635599
C    26.381722   13.486029    6.635826
C    24.959075   15.952251    6.637798
C    10.011247    2.380816    6.625233
C     7.159207    2.380630    6.621348
C     9.300085    6.084749    6.678138
C    27.094352   12.253079    6.638291
C    24.246593   12.253146    6.636727
C    26.381517   15.952163    6.638127
C     7.873607    1.149525    6.625947
C     9.296356    1.149271    6.625441
C     5.735279    2.381639    6.622330
C    11.435301    2.381394    6.624582
C     5.731210    4.845514    6.615522
C    10.011059    7.324841    6.670357
C     7.160245    7.325175    6.675125
C    24.959213   11.020350    6.638776
C    26.381719   11.020367    6.638683
C    22.823975   12.252900    6.639812
C    28.516897   12.252821    6.641679
C    22.823700   14.718928    6.639103
C    27.094412   17.185156    6.642703
C    24.246262   17.185196    6.640742
C    12.147327    1.150370    6.633448
C     5.022999    1.149997    6.634468
C     5.018114    3.610335    6.618129
C    11.440672    4.844826    6.615122
C     5.014486    6.085860    6.622001
C     5.731361    7.325537    6.652143
C    26.381781    8.554703    6.645386
C     7.874484    8.560183    6.685674
C     9.296166    8.560581    6.680905
C    22.824198    9.787351    6.645334
C    27.094346    9.787532    6.642966
C    24.246676    9.787547    6.642251
C    28.516818    9.787311    6.645256
C    29.229349   11.020010    6.645709
C    22.111664   11.020035    6.643454
C    22.111233   13.485814    6.640337
C    28.517001   14.718786    6.641857
C    22.110938   15.951915    6.642185
C    22.823601   17.185145    6.643489
C     9.296357   18.413286    6.643082
C    24.958965   18.418170    6.644456
C    26.381636   18.418095    6.644573
C     5.737392   19.645607    6.641876
C    10.009995   19.645306    6.635068
C     7.159970   19.645008    6.635953
C    11.432608   19.645969    6.638563
C    13.570072    1.152570    6.640506
C     3.600406    1.152000    6.644149
C    26.381601    1.156043    6.651788
C     2.886136    2.384138    6.641051
C    12.152923    3.610668    6.620859
C     3.597192    3.616773    6.628059
C     2.883742    4.850820    6.633551
C     3.590935    6.085793    6.634516
C    12.157299    6.085791    6.609720
C    27.094402    7.321585    6.650098
C    24.246593    7.321587    6.650365
C    28.516930    7.321311    6.651215
C    11.440344    7.326249    6.633815
C    24.959223    8.554675    6.645998
C    29.229418    8.554334    6.650054
C    22.111618    8.554369    6.650666
C    30.651835    8.553955    6.652670
C     5.018580    8.560315    6.663517
C    10.010957    9.790011    6.668895
C     7.159294    9.790121    6.675214
C    11.434865    9.789793    6.660253
C    30.651791   11.019692    6.650052
C    20.689112   11.019812    6.648457
C     9.296285   11.021337    6.667119
C    19.976320   12.252493    6.648307
C    29.229557   13.485769    6.644462
C    20.688658   13.485572    6.645462
C    19.975820   14.718452    6.647728
C    20.688304   15.951735    6.647132
C    29.229765   15.951794    6.646665
C    10.009656   17.181405    6.649663
C     7.160724   17.181123    6.651322
C    11.432132   17.181758    6.650703
C    28.516964   17.184970    6.645960
C     7.873785   18.413190    6.644644
C    12.145625   18.414110    6.648874
C     5.024602   18.413552    6.652595
C    13.568449   18.415234    6.652794
C    22.111073   18.417793    6.648199
C    27.094348   19.650830    6.649650
C    24.246362   19.650840    6.648484
C    28.516908   19.650579    6.651822
C    33.499380    1.154176    6.661495
C    16.418776    1.153989    6.658512
C     0.752394    1.153215    6.658768
C    17.841201    1.154856    6.662108
C    20.688722    1.155510    6.659374
C    29.229570    1.155638    6.656150
C    22.111242    1.155769    6.655702
C    30.652024    1.155159    6.658143
C    24.959089    1.156091    6.652193
C    14.284881    2.384689    6.639119
C    31.364440    2.387839    6.659951
C     1.463947    2.385974    6.652606
C    18.554117    2.387670    6.664637
C    32.786746    2.387077    6.660164
C    15.707225    2.386679    6.651002
C    22.823866    2.388758    6.657585
C    27.094368    2.388955    6.655174
C    19.976446    2.388205    6.663087
C    24.246371    2.388929    6.655120
C    28.516919    2.388662    6.656116
C    13.574386    3.617055    6.625768
C    33.498772    3.619995    6.659153
C    20.688915    3.621441    6.663550
C    30.652013    3.621119    6.658541
C     0.751424    3.618976    6.653565
C    29.229576    3.621587    6.657855
C    24.959087    3.622052    6.656303
C    22.111342    3.621690    6.660012
C    26.381673    3.622023    6.655417
C    27.094432    4.855190    6.655494
C    31.364458    4.854119    6.658702
C     1.462694    4.852256    6.648646
C    22.823973    4.854984    6.658788
C    28.516934    4.854943    6.655957
C    32.786607    4.853537    6.658483
C    19.976544    4.854477    6.664721
C    24.246453    4.855173    6.656097
C    24.959156    6.088475    6.653570
C    29.229506    6.088109    6.655265
C    33.498595    6.086763    6.658573
C    20.688989    6.087840    6.661992
C    26.381724    6.088452    6.652587
C    30.651990    6.087600    6.656281
C     0.751487    6.086360    6.654700
C    22.111493    6.088182    6.657854
C    22.824074    7.321329    6.653332
C    31.364310    7.320716    6.656139
C    18.554472    7.320806    6.664177
C    32.786506    7.320295    6.657760
C    19.976670    7.320978    6.660837
C     1.462715    7.320070    6.655997
C     2.883697    7.321049    6.648884
C    20.689177    8.554089    6.655484
C    33.498560    8.553422    6.659097
C    17.842290    8.553959    6.662369
C     3.597334    8.554729    6.657637
C     0.751291    8.553758    6.659873
C    13.574052    8.555226    6.645613
C    12.152383    8.560734    6.648321
C    18.554347    9.786994    6.658840
C    31.364122    9.786750    6.653593
C     1.463978    9.786301    6.661918
C    19.976818    9.786967    6.653740
C    32.786427    9.786599    6.656879
C    15.707113    9.786858    6.660321
C    14.284538    9.787984    6.657854
C     2.886086    9.787832    6.662477
C     5.735599    9.789374    6.671031
C    16.418867   11.019801    6.660467
C    33.499039   11.019061    6.659163
C    17.841502   11.019473    6.657202
C     0.752151   11.019306    6.661371
C     3.600593   11.019401    6.665179
C    12.146906   11.021140    6.662236
C     5.023106   11.021247    6.666652
C    13.569947   11.019776    6.660655
C     7.873822   11.021119    6.669530
C    31.364428   12.252364    6.653106
C    14.282300   12.252623    6.660543
C    18.553689   12.252464    6.653322
C     1.465662   12.251597    6.663361
C    15.705167   12.252126    6.658751
C    32.786831   12.252185    6.657603
C     5.737658   12.252811    6.663536
C    10.009898   12.253066    6.661760
C     2.888159   12.252335    6.663439
C     7.160161   12.253230    6.662475
C    11.432611   12.253114    6.660947
C    30.652072   13.485373    6.650138
C    16.417661   13.485102    6.656787
C     3.602037   13.484428    6.662856
C    13.568516   13.484943    6.657790
C    17.840569   13.485082    6.653720
C    12.145632   13.485315    6.657856
C     7.873910   13.485056    6.657315
C     5.024682   13.485112    6.660109
C     9.296476   13.485274    6.656454
C    10.009724   14.717289    6.653604
C    14.281381   14.717565    6.656827
C    18.553103   14.718260    6.652590
C     5.738383   14.717002    6.657636
C    11.432216   14.717417    6.653971
C    15.704305   14.717669    6.656533
C     2.889118   14.717146    6.663464
C     7.160808   14.717244    6.654528
C     7.874163   15.949203    6.652854
C    12.145391   15.949710    6.653840
C    16.417233   15.950830    6.657304
C     3.602521   15.949533    6.662441
C     9.296398   15.949292    6.651300
C    13.568053   15.950140    6.655327
C    17.840076   15.951136    6.654904
C     5.025087   15.949373    6.658250
C     5.738307   17.181470    6.655287
C    14.281280   17.182980    6.656794
C     1.466531   17.182863    6.664870
C    15.704143   17.183627    6.657787
C     2.889247   17.182279    6.662470
C    18.552888   17.184272    6.655413
C    19.975636   17.184525    6.651111
C     3.601992   18.414606    6.658066
C    16.417396   18.416427    6.659265
C     0.753454   18.415664    6.663244
C    20.688395   18.417584    6.652443
C    17.840200   18.416993    6.658321
C    30.652174   18.417266    6.655374
C    29.229618   18.417645    6.651374
C     1.465821   19.648251    6.660407
C    14.282294   19.647742    6.651693
C    18.553328   19.649752    6.660405
C     2.888217   19.646911    6.655038
C    15.704981   19.649047    6.656893
C    32.787164   19.649155    6.661217
C    31.364739   19.649823    6.659142
C    19.975921   19.650162    6.657337
C    22.823765   19.650748    6.651000
C    16.420144    3.619632    6.655589
C    17.842192    3.620611    6.663718
C    14.288003    4.851108    6.630689
C    18.554386    4.854080    6.665972
C    15.709024    4.852846    6.647691
C    16.420091    6.086993    6.656534
C    13.581626    6.086143    6.624342
C    17.842473    6.087366    6.664003
C    14.287811    7.321621    6.640339
C    15.708933    7.320699    6.653440
C    16.420059    8.554309    6.661185
C    33.499817   13.484714    6.661521
C     0.753139   13.484744    6.663529
C    31.364856   14.718222    6.654644
C     1.466422   14.717134    6.665445
C    32.787310   14.717889    6.660010
C    33.500225   15.950663    6.663378
C    30.652271   15.951470    6.652189
C     0.753551   15.950197    6.665156
C    31.364920   17.184203    6.656879
C    32.787423   17.183747    6.661089
C    33.500064   18.416374    6.662950
