580       
Geometry optimisation iteration:    19
Li   21.444224   12.494019    8.740038
Li   23.479867   18.365097    8.758827
Li   17.207490   12.410664    8.828424
Li   21.322148   16.250019    9.005779
Li   19.289137   14.231505    8.924678
Li   23.883213   14.944900    8.948843
Li   21.910265    9.700262    8.926576
Li   18.461257   17.197132    9.090555
Li   19.389326    8.214852    8.898914
Li   16.943420    9.622699    8.886354
Li   24.260443   11.856346    9.078607
Li   19.466967   10.837297   10.312325
Li   20.826640   18.732534   10.773810
Li   22.043523   14.028792   10.989596
Li   22.211020   11.607566   11.267641
Li   17.429576   14.866631   11.276192
Li   19.974395   16.186704   11.395771
Li   19.522525   13.255667   11.355793
Li   22.910241   16.583521   11.432475
Li   24.602961   13.462888   11.738210
Li   21.228468    9.012130   11.750648
Li   17.230274   11.651119   11.759703
Li   18.335056    8.766730   11.789110
Li   24.193276    9.890109   12.057727
Li   18.117169   18.403853   12.187733
Li   20.330016   11.226305   13.180145
Li   20.939581   14.322884   13.497775
Li   21.036011   17.564699   13.708193
Li   22.726377   12.223612   13.835109
Li   18.662481   15.845995   13.902200
Li   23.362267   15.272311   14.305175
Li   18.593060   12.993913   14.166224
Li   21.990292    9.306898   14.667228
Li   18.636615    9.793136   14.953734
Li   20.784759   12.205916   16.089018
Li   20.764895   15.409357   16.310912
C    10.004790    4.863515    6.859450
C     7.155720    4.863935    6.860063
C     7.865719    6.099676    6.859554
C     9.293959    6.098944    6.859047
C    27.110207   14.730952    6.851542
C    24.256116   14.731406    6.817968
C    24.970209   15.968044    6.861106
C    26.398604   15.969403    6.860081
C     7.866354    3.628689    6.861516
C     9.294642    3.628064    6.860735
C    11.422249    7.326888    6.856011
C    10.001115    7.329112    6.847517
C     7.158657    7.329719    6.849656
C     7.865528    8.560015    6.860108
C     9.292982    8.559131    6.859388
C    24.971404   13.491720    6.862795
C    26.400829   13.493957    6.853961
C    28.524174   17.197291    6.859388
C    27.104312   17.197244    6.850568
C    24.257008   17.204803    6.839347
C    24.968075   18.431704    6.851808
C    26.397936   18.431651    6.861199
C     7.867126    1.169654    6.864507
C     9.295275    1.169577    6.863969
C    12.135073    1.163136    6.861596
C     5.027227    1.163466    6.864491
C    33.500256    1.170174    6.866234
C     3.598899    1.163304    6.864745
C    16.405941    1.172846    6.864647
C     0.759365    1.169749    6.865298
C    13.563984    1.163276    6.863528
C    17.835287    1.174545    6.860242
C    20.683464    1.173032    6.841721
C    29.233042    1.165550    6.863562
C    30.661680    1.164859    6.864144
C    24.964650    1.178720    6.863417
C    22.113042    1.175440    6.846901
C    26.393556    1.175876    6.864189
C    10.001934    2.398581    6.851064
C     7.159683    2.398910    6.853145
C     5.737400    2.399189    6.863532
C    14.274948    2.397856    6.863461
C     2.888791    2.399095    6.864320
C    11.424409    2.398576    6.860279
C    31.371819    2.400437    6.864024
C     1.466457    2.399344    6.854464
C    18.546626    2.401355    6.844152
C    32.793763    2.399781    6.855267
C    15.697909    2.398139    6.853483
C    22.828989    2.404559    6.856635
C    27.099822    2.402588    6.853318
C    19.969373    2.401385    6.849566
C    28.522828    2.402053    6.864301
C    24.253012    2.405307    6.851484
C    12.134334    3.633191    6.859848
C    33.500999    3.629002    6.865938
C     3.598837    3.634894    6.863953
C    16.406729    3.624691    6.860181
C    20.685351    3.632884    6.852906
C    30.661715    3.636000    6.864078
C     0.759813    3.628920    6.865029
C     5.027257    3.634998    6.863268
C    13.563874    3.632478    6.861318
C    17.835861    3.625461    6.857835
C    29.232711    3.636888    6.865583
C    24.962316    3.630891    6.861199
C    22.115402    3.633751    6.854924
C    26.391598    3.631611    6.862361
C    27.102752    4.865364    6.863391
C    31.368532    4.865217    6.853805
C     1.469993    4.864544    6.863809
C    14.270299    4.860168    6.848145
C    18.549298    4.856370    6.858075
C    22.828387    4.860232    6.846834
C    28.525650    4.865652    6.855535
C    32.790854    4.864983    6.865757
C     2.892089    4.864606    6.853188
C    11.427033    4.862840    6.848711
C    15.693692    4.858484    6.859406
C    19.975127    4.856073    6.846525
C    24.250486    4.862608    6.856932
C     5.733860    4.864372    6.851337
C    24.964280    6.097011    6.856887
C    29.233141    6.094659    6.865384
C    33.501357    6.100781    6.865828
C    16.404386    6.088764    6.864323
C    20.689540    6.078552    6.865866
C    26.392448    6.098686    6.859651
C    30.661666    6.095122    6.863588
C     0.760407    6.100587    6.865314
C    17.834200    6.086043    6.873047
C    22.119826    6.083101    6.863961
C     3.598831    6.094320    6.863384
C    12.133140    6.091196    6.857028
C    13.562237    6.090156    6.856740
C     5.026996    6.093851    6.862239
C    24.256681    7.320966    6.848520
C    22.837239    7.316222    6.868176
C    27.101177    7.328564    6.851807
C    31.372268    7.330500    6.862821
C    18.546576    7.310331    6.890589
C    28.523317    7.329629    6.864264
C    32.794140    7.330820    6.854157
C    15.692431    7.318769    6.861584
C    19.974872    7.310620    6.880953
C     1.467042    7.330340    6.854539
C    14.271989    7.322636    6.858705
C     2.888436    7.329989    6.864180
C     5.736935    7.329589    6.861592
C    24.969224    8.553367    6.866316
C    29.235062    8.566007    6.864427
C    22.125289    8.551140    6.881475
C    26.395231    8.555072    6.866212
C    20.690578    8.552317    6.919521
C    33.501458    8.560368    6.865298
C    16.398960    8.545345    6.897703
C    30.662217    8.566957    6.864197
C    17.835236    8.548153    6.934155
C     3.598363    8.565767    6.864910
C     0.760523    8.560295    6.865087
C    13.559030    8.562526    6.861383
C    12.132449    8.563202    6.856789
C     5.026822    8.565733    6.863509
C    27.108766    9.794259    6.867949
C    24.259577    9.784406    6.878838
C    22.835658    9.783968    6.857358
C    28.528978    9.795786    6.853673
C    18.553487    9.789049    6.917359
C    31.368727    9.797025    6.854371
C    19.974611    9.788982    6.910363
C    32.789682    9.796621    6.865445
C    15.683121    9.790968    6.903836
C     1.470226    9.795968    6.864613
C    14.262364    9.791312    6.870071
C     2.891663    9.796010    6.855065
C     5.734436    9.796104    6.852414
C    10.003860    9.795436    6.860114
C    11.423898    9.794025    6.848615
C     7.155679    9.796173    6.860753
C    24.971494   11.027070    6.876954
C    26.400408   11.027772    6.869735
C    29.236880   11.026054    6.862508
C    22.119462   11.018628    6.878024
C    16.399929   11.029563    6.937484
C    20.683705   11.020165    6.880053
C    33.500681   11.032736    6.865193
C    17.839404   11.032591    6.907174
C    30.661986   11.027066    6.863760
C     0.760100   11.032653    6.865643
C     3.598655   11.026574    6.866278
C    12.131430   11.025285    6.863681
C    13.556182   11.025224    6.876243
C     7.866034   11.031754    6.862271
C     5.027332   11.026639    6.864833
C     9.292887   11.031242    6.861912
C    27.107594   12.262958    6.847060
C    24.261639   12.259401    6.845652
C    22.832887   12.260244    6.849919
C    31.372416   12.262326    6.862430
C    19.971443   12.259225    6.849482
C    28.525629   12.262335    6.858432
C    14.266335   12.263646    6.889188
C    18.546376   12.259463    6.861345
C     1.467092   12.263223    6.855659
C    15.688998   12.267416    6.906710
C    32.792803   12.263090    6.853636
C     5.737849   12.262771    6.864615
C    10.000734   12.261351    6.851421
C     2.888545   12.263254    6.866726
C    11.420179   12.261874    6.862220
C     7.159057   12.261978    6.852945
C    29.236988   13.499975    6.856481
C    16.397548   13.500962    6.891999
C    20.681466   13.500444    6.826353
C    33.501001   13.493286    6.864831
C     3.598715   13.499324    6.867386
C    13.557413   13.499242    6.870057
C    17.837252   13.499435    6.878838
C    22.119447   13.499782    6.821760
C    30.662328   13.499035    6.861418
C     0.759704   13.493372    6.865317
C    12.131669   13.498585    6.863531
C     7.866417   13.492567    6.863494
C     5.027019   13.499342    6.866566
C     9.293909   13.492531    6.862992
C    10.004952   14.728758    6.863325
C    14.266758   14.732921    6.856713
C    18.548481   14.739678    6.844617
C    31.369603   14.729691    6.852642
C     1.469977   14.729408    6.865079
C     5.733928   14.729753    6.855572
C    11.424900   14.729022    6.851785
C    15.684870   14.737075    6.875807
C    19.972818   14.737091    6.823270
C    28.528868   14.730284    6.842297
C    32.790375   14.729480    6.865298
C     2.891846   14.729723    6.856519
C     7.156286   14.729591    6.863845
C    22.827436   14.730689    6.843736
C     7.867212   15.965761    6.864445
C    12.132684   15.959159    6.861337
C    16.398776   15.974179    6.872292
C    33.500427   15.965655    6.865492
C     3.598945   15.959898    6.867580
C     9.294935   15.965602    6.863906
C    13.559310   15.959921    6.860504
C    17.829449   15.976654    6.886428
C     0.759520   15.965348    6.865712
C     5.026967   15.960207    6.867024
C    20.683842   15.969521    6.850197
C    29.236063   15.960480    6.856435
C    30.662259   15.960147    6.860616
C    22.115986   15.966363    6.852729
C     7.159555   17.196430    6.854884
C     5.737196   17.196132    6.866102
C    10.002309   17.195456    6.853658
C    14.272002   17.198085    6.858202
C     1.466855   17.195535    6.855659
C    11.422839   17.195308    6.862417
C    15.691390   17.199770    6.847514
C    32.793219   17.195941    6.854175
C     2.888928   17.195737    6.866821
C    18.542095   17.209838    6.842311
C    31.372586   17.196887    6.861558
C    19.970611   17.211146    6.879890
C    22.827972   17.206364    6.836508
C     7.867409   18.426167    6.865079
C    12.134486   18.431706    6.862449
C     5.026942   18.431784    6.866218
C     9.295477   18.426029    6.864770
C     3.599028   18.431499    6.866591
C    16.401651   18.434264    6.856632
C    33.499956   18.426184    6.865633
C    13.562166   18.433322    6.860101
C     0.759116   18.425740    6.865493
C    20.680688   18.449657    6.840782
C    17.832110   18.436863    6.859100
C    30.661616   18.432562    6.862208
C    29.234443   18.433454    6.860781
C    22.113036   18.447380    6.818354
C    10.005552   19.661474    6.864303
C     7.156670   19.662115    6.864356
C     5.734313   19.661564    6.854633
C    11.427494   19.661463    6.852790
C     1.469915   19.661517    6.864429
C    14.270468   19.663231    6.851805
C     2.892309   19.661155    6.854894
C    15.692389   19.665102    6.862424
C    32.789754   19.661974    6.866251
C    18.548877   19.674537    6.854768
C    31.368526   19.662636    6.854431
C    19.972340   19.673754    6.830034
C    22.824390   19.676141    6.827396
C    27.105015   19.665143    6.864035
C    28.526769   19.664309    6.851841
C    24.252803   19.675880    6.852255
Li    0.034031   19.661660    4.973045
Li    0.034956   14.730283    4.973714
Li    0.034326    9.798092    4.973972
Li    0.033265    4.866327    4.973048
Li    4.309928   17.194718    4.975392
Li    4.310453   12.264276    4.975245
Li    4.310209    7.333466    4.971443
Li    4.309927    2.399601    4.971369
Li    8.586803    4.865476    4.967884
Li    8.584912    9.797751    4.969650
Li    8.585060   14.731233    4.972352
Li    8.587973   19.662338    4.972517
Li   12.858960   17.197645    4.973198
Li   12.855699   12.263662    4.981639
Li   12.856169    7.328079    4.970349
Li   12.861375    2.399641    4.969623
Li   17.119093   19.680155    4.973042
Li   17.101412   14.735140    4.999904
Li   17.128706    9.793768    5.021004
Li   17.121786    4.851571    4.972558
Li   21.389037   17.212555    4.978516
Li   21.398918   12.239257    4.985556
Li   21.411091    7.317310    4.993546
Li   21.401613    2.413991    4.963628
Li   25.697056   19.680832    4.973202
Li   25.708604   14.737015    4.976550
Li   25.695173    9.784478    4.985106
Li   25.675092    4.863214    4.970397
Li   29.936197   17.198096    4.969572
Li   29.937896   12.263628    4.971872
Li   29.933576    7.331614    4.972991
Li   29.930218    2.401443    4.971675
C    10.007986    4.864190    3.073799
C     7.156200    4.864436    3.076076
C     7.867752    6.100155    3.074603
C     9.296600    6.100390    3.073208
C    27.094767   14.728465    3.085364
C    24.242561   14.728583    3.113612
C    24.953621   15.964586    3.105815
C    26.383465   15.964803    3.090982
C     7.867702    3.628294    3.076256
C     9.296684    3.628396    3.074672
C    11.427390    7.330475    3.074856
C    10.004775    7.330145    3.083738
C     7.159530    7.330361    3.086027
C     7.867736    8.560327    3.074830
C     9.296663    8.560355    3.073795
C    24.953779   13.492626    3.107396
C    26.383509   13.492479    3.093894
C    28.513856   17.194654    3.078577
C    27.091284   17.194530    3.096763
C    24.245953   17.194528    3.121082
C    24.953702   18.424486    3.100380
C    26.383289   18.424547    3.088015
C     7.867805    1.168295    3.079199
C     9.296660    1.168338    3.077036
C    12.138544    1.162618    3.074537
C     5.025884    1.162447    3.080481
C    33.495996    1.168583    3.080166
C     3.597410    1.162430    3.080803
C    16.409702    1.168690    3.076849
C     0.755536    1.168624    3.081524
C    13.567790    1.162463    3.073839
C    17.839626    1.168577    3.079511
C    20.681611    1.162614    3.083408
C    29.225095    1.162776    3.074448
C    30.654134    1.162966    3.077746
C    24.953624    1.168656    3.079766
C    22.111584    1.162587    3.084185
C    26.383179    1.168862    3.073452
C    10.004789    2.398370    3.085990
C     7.159645    2.398452    3.089069
C     5.737432    2.398389    3.079524
C    14.278949    2.398532    3.072494
C     2.885710    2.398585    3.080646
C    11.427349    2.398368    3.074673
C    31.365374    2.398665    3.079317
C     1.463791    2.398610    3.091929
C    18.547482    2.398481    3.087008
C    32.787727    2.398755    3.090907
C    15.701813    2.398532    3.083533
C    22.822642    2.398496    3.076020
C    27.090935    2.398836    3.080566
C    19.970655    2.398508    3.077133
C    28.513745    2.398747    3.072240
C    24.245790    2.398543    3.085620
C    12.138423    3.634247    3.073365
C    33.495970    3.628768    3.080374
C     3.597368    3.634522    3.079402
C    16.409718    3.628562    3.074283
C    20.681507    3.634491    3.077053
C    30.654095    3.634670    3.077616
C     0.755585    3.628823    3.081253
C     5.025919    3.634468    3.078428
C    13.567811    3.634438    3.072442
C    17.839661    3.628431    3.076450
C    29.224940    3.634602    3.073684
C    24.953565    3.628618    3.073008
C    22.111762    3.634498    3.075392
C    26.383005    3.628607    3.071108
C    27.094237    4.864626    3.073427
C    31.362058    4.864730    3.089004
C     1.467115    4.864631    3.081094
C    14.275737    4.864300    3.085866
C    18.550813    4.864312    3.085929
C    22.819595    4.864323    3.092364
C    28.516904    4.864543    3.084063
C    32.784444    4.864702    3.079958
C     2.888957    4.864739    3.090458
C    11.430538    4.864363    3.083916
C    15.698683    4.864392    3.078623
C    19.973884    4.864310    3.097600
C    24.242603    4.864350    3.079045
C     5.734335    4.864462    3.087872
C    24.953754    6.100344    3.084075
C    29.225030    6.094619    3.075610
C    33.495996    6.100757    3.079745
C    16.409881    6.100260    3.091696
C    20.681934    6.094258    3.099890
C    26.383201    6.100265    3.079171
C    30.654080    6.094618    3.077387
C     0.755590    6.100670    3.080762
C    17.839758    6.100287    3.098320
C    22.111840    6.094289    3.094748
C     3.597355    6.094639    3.079055
C    12.138655    6.094235    3.074309
C    13.567891    6.094395    3.077044
C     5.025856    6.094577    3.077953
C    24.246205    7.330197    3.106654
C    22.823177    7.330192    3.103113
C    27.091277    7.330247    3.092822
C    31.365271    7.330714    3.078218
C    18.547850    7.330036    3.128530
C    28.513811    7.330276    3.078307
C    32.787783    7.330685    3.089733
C    15.702082    7.330182    3.111449
C    19.970899    7.330037    3.117199
C     1.463756    7.330656    3.091283
C    14.279399    7.330164    3.087362
C     2.885798    7.330600    3.079831
C     5.737443    7.330355    3.077433
C    24.953948    8.560146    3.099269
C    29.225102    8.566530    3.078706
C    22.112302    8.566307    3.115887
C    26.383553    8.560067    3.089630
C    20.682166    8.566364    3.125199
C    33.495949    8.560711    3.079336
C    16.410134    8.560247    3.122243
C    30.654259    8.566358    3.077136
C    17.839913    8.560270    3.131517
C     3.597215    8.566469    3.079061
C     0.755670    8.560633    3.081004
C    13.568116    8.566384    3.088132
C    12.138603    8.565995    3.078517
C     5.026031    8.566482    3.077905
C    27.094672    9.796379    3.089446
C    24.243030    9.796302    3.109541
C    22.820210    9.796083    3.127231
C    28.517390    9.796261    3.093172
C    18.551311    9.796430    3.141988
C    31.362045    9.796627    3.087007
C    19.974281    9.796029    3.146290
C    32.784531    9.796512    3.077812
C    15.699044    9.796243    3.124473
C     1.466889    9.796499    3.081641
C    14.275992    9.795993    3.113862
C     2.889090    9.796431    3.091294
C     5.734235    9.796319    3.088647
C    10.008093    9.796108    3.075242
C    11.430681    9.796364    3.089020
C     7.156433    9.796268    3.076698
C    24.953880   11.032371    3.107767
C    26.383551   11.032430    3.096958
C    29.225119   11.026544    3.079864
C    22.112144   11.026016    3.119034
C    16.410087   11.032294    3.135944
C    20.681658   11.026036    3.128922
C    33.495822   11.032388    3.078092
C    17.840036   11.032692    3.144897
C    30.654177   11.026438    3.076164
C     0.755637   11.032276    3.080781
C     3.597268   11.026353    3.080857
C    12.138708   11.026139    3.084088
C    13.568106   11.026084    3.096401
C     7.867766   11.032148    3.076559
C     5.026061   11.026367    3.079949
C     9.296721   11.032179    3.075753
C    27.091302   12.262404    3.102241
C    24.246178   12.262593    3.123137
C    22.823171   12.262556    3.117812
C    31.365337   12.262419    3.075556
C    19.970215   12.262553    3.135363
C    28.513911   12.262366    3.082516
C    14.279231   12.262149    3.104211
C    18.547435   12.262747    3.154221
C     1.463617   12.262306    3.092116
C    15.701883   12.262391    3.134929
C    32.787745   12.262356    3.087074
C     5.737389   12.262158    3.080592
C    10.004951   12.262177    3.088227
C     2.885872   12.262220    3.081976
C    11.427543   12.262166    3.081960
C     7.159731   12.262154    3.089481
C    29.225150   13.498347    3.077654
C    16.409580   13.492334    3.124526
C    20.681609   13.498732    3.130546
C    33.495842   13.492339    3.077779
C     3.597158   13.498103    3.081794
C    13.567944   13.498380    3.092624
C    17.839713   13.492425    3.135967
C    22.111699   13.498676    3.123567
C    30.654199   13.498302    3.074692
C     0.755660   13.492293    3.080785
C    12.138585   13.498186    3.083423
C     7.867762   13.492153    3.078866
C     5.026119   13.497977    3.081384
C     9.296796   13.492189    3.077822
C    10.008055   14.728266    3.077857
C    14.275491   14.728414    3.105147
C    18.550680   14.728533    3.130212
C    31.362106   14.728275    3.085075
C     1.466901   14.728051    3.082210
C     5.734168   14.728094    3.092150
C    11.430710   14.728096    3.090079
C    15.698423   14.728455    3.108192
C    19.973647   14.728434    3.140775
C    28.517465   14.728616    3.089505
C    32.784523   14.728209    3.076589
C     2.889103   14.728063    3.093146
C     7.156522   14.728063    3.080398
C    22.819702   14.728422    3.132203
C     7.867780   15.964112    3.079223
C    12.138566   15.958413    3.079637
C    16.409620   15.964392    3.106907
C    33.495903   15.964107    3.077843
C     3.597220   15.958080    3.082387
C     9.296876   15.964075    3.077314
C    13.567908   15.958261    3.084794
C    17.839492   15.964324    3.117369
C     0.755525   15.964088    3.080848
C     5.026056   15.958031    3.082100
C    20.681459   15.958080    3.120047
C    29.225145   15.958380    3.076554
C    30.654244   15.958549    3.074949
C    22.111642   15.958104    3.119562
C     7.159698   17.194035    3.091634
C     5.737418   17.194034    3.082420
C    10.004889   17.194206    3.087658
C    14.279187   17.194474    3.084912
C     1.463670   17.194037    3.092570
C    11.427535   17.194016    3.078039
C    15.701950   17.194483    3.105108
C    32.787736   17.194268    3.087754
C     2.885893   17.194024    3.082686
C    18.547107   17.194428    3.120799
C    31.365375   17.194196    3.076047
C    19.970130   17.194345    3.110042
C    22.822800   17.194389    3.113795
C     7.867754   18.424197    3.080276
C    12.138660   18.430203    3.076974
C     5.026036   18.429998    3.081987
C     9.296835   18.424011    3.077799
C     3.597332   18.429952    3.082201
C    16.409681   18.424458    3.091803
C    33.495929   18.424143    3.078901
C    13.567970   18.430186    3.078761
C     0.755453   18.424215    3.081440
C    20.681432   18.430531    3.100806
C    17.839550   18.424348    3.098305
C    30.654202   18.430456    3.075985
C    29.225095   18.430339    3.075813
C    22.111620   18.430529    3.104212
C    10.008123   19.660051    3.077105
C     7.156326   19.659963    3.081051
C     5.734296   19.659910    3.092007
C    11.430683   19.660012    3.086415
C     1.467075   19.660192    3.082378
C    14.275779   19.660395    3.088158
C     2.888937   19.660033    3.092667
C    15.698575   19.660202    3.081564
C    32.784380   19.660391    3.079100
C    18.550732   19.660282    3.089619
C    31.362188   19.660258    3.088169
C    19.973654   19.660540    3.102355
C    22.819572   19.660544    3.106627
C    27.094574   19.660237    3.076948
C    28.517192   19.660520    3.085446
C    24.242526   19.660341    3.094507
