520       
Geometry optimisation iteration:    17
Li    6.529225    3.600820    8.503198
Li    4.110082    5.064755    8.591622
Li    2.125085    8.668396    8.417583
Li    0.084800    4.834300    8.501025
Li    6.943514    6.917242    8.685444
Li    3.104017    3.125861   10.696339
Li    5.952850    4.930938   11.432142
Li    2.356253    6.035024   11.471336
C     6.443539    3.630084    3.406833
C     5.020710    3.629972    3.407760
C     7.156543    4.863338    3.406158
C     4.307739    4.863255    3.406962
C     5.020794    6.096626    3.405713
C     6.443621    6.096727    3.405582
C    23.527934   13.494276    3.379876
C    22.105066   13.494248    3.378529
C    24.240865   14.727284    3.379664
C    21.392094   14.727244    3.375812
C    22.105057   15.960280    3.376047
C    23.527909   15.960300    3.377624
C     4.307740    2.396865    3.408197
C     2.885067    2.396820    3.409482
C     7.156387    2.396935    3.406919
C     9.291958    3.630228    3.406891
C     2.171983    3.629933    3.411007
C     8.579273    4.863454    3.406117
C     2.885015    4.863204    3.408240
C     9.292002    6.096671    3.406676
C     2.171951    6.096587    3.408393
C     7.156516    7.330040    3.405081
C     4.307893    7.329958    3.405565
C     8.579190    7.329832    3.406476
C     2.885073    7.329947    3.406271
C    21.392099   12.261223    3.383413
C    19.969252   12.261217    3.386263
C    24.240883   12.261279    3.386753
C    26.376602   13.494343    3.389849
C    19.256301   13.494238    3.383877
C    25.663697   14.727327    3.384643
C    19.969247   14.727246    3.379231
C    26.376632   15.960337    3.388575
C    19.256280   15.960272    3.381536
C    24.240852   17.193304    3.382939
C    21.392076   17.193288    3.378812
C    25.663670   17.193322    3.387849
C    19.969227   17.193275    3.381770
C     6.443393    1.163965    3.406985
C     5.020799    1.163857    3.407251
C     2.172200    1.163975    3.408675
C    10.714418    1.164460    3.410666
C     0.749698    1.164051    3.411182
C     9.291774    1.164184    3.409512
C     0.036467    2.396985    3.415320
C    15.697871    2.397584    3.409199
C     8.579138    2.397202    3.407043
C    12.849787    2.397568    3.409940
C    11.427169    2.397360    3.409565
C    13.562426    3.630498    3.410147
C    10.714587    3.630458    3.407598
C    14.985089    3.630581    3.410345
C     0.749280    3.630101    3.414733
C    11.427210    4.863469    3.408231
C    15.697833    4.863533    3.411888
C     0.036182    4.863307    3.416871
C    12.849740    4.863527    3.409360
C    17.120519    4.863540    3.412249
C    13.562422    6.096540    3.410804
C    10.714546    6.096596    3.407823
C    14.985015    6.096523    3.411581
C     0.749161    6.096641    3.412391
C    11.427155    7.329686    3.409944
C    15.697842    7.329482    3.411910
C     0.036165    7.329924    3.413095
C    12.849724    7.329517    3.410780
C    17.120556    7.329393    3.411251
C     5.020938    8.563256    3.406035
C     9.291827    8.562993    3.409630
C    13.562378    8.562551    3.412355
C    17.833475    8.562347    3.407978
C     2.172097    8.563180    3.407022
C     6.443623    8.563163    3.406137
C    10.714463    8.562659    3.411046
C    14.985060    8.562408    3.411152
C    19.256281    8.562308    3.405841
C     0.749359    8.563098    3.409282
C    21.392110    9.795267    3.397525
C    24.240868    9.795328    3.400496
C     2.885327    9.796264    3.408066
C     7.156356    9.796222    3.410008
C     4.307995    9.796295    3.408053
C     8.578981    9.795928    3.411515
C    17.120620    9.795302    3.405063
C    19.969270    9.795269    3.399128
C    23.527923   11.028255    3.391385
C    22.105088   11.028233    3.390346
C    19.256322   11.028217    3.393718
C    27.799255   11.028460    3.403053
C    17.833504   11.028262    3.398821
C    26.376526   11.028348    3.398988
C    17.120610   12.261244    3.397563
C    32.783527   12.261666    3.410600
C    25.663681   12.261326    3.390725
C    29.934921   12.261529    3.405467
C    28.512235   12.261408    3.401365
C    30.647992   13.494439    3.405532
C    27.799369   13.494398    3.395459
C    32.070667   13.494573    3.408291
C    17.833500   13.494231    3.391066
C    28.512330   14.727356    3.397516
C    32.783791   14.727440    3.408755
C    17.120627   14.727233    3.393102
C    29.935100   14.727408    3.402403
C     0.037142   14.727564    3.409944
C    30.648127   15.960371    3.405035
C    27.799409   15.960348    3.394735
C    32.070791   15.960345    3.407353
C    17.833493   15.960243    3.389079
C    28.512324   17.193327    3.400185
C    32.783782   17.193253    3.408584
C    17.120620   17.193256    3.394292
C    29.935076   17.193306    3.404463
C     0.037097   17.193258    3.408469
C    22.105038   18.426292    3.384458
C    26.376552   18.426303    3.395786
C    30.647943   18.426267    3.408675
C     0.750032   18.426057    3.408367
C    19.256295   18.426285    3.388031
C    23.527884   18.426311    3.386070
C    27.799335   18.426286    3.400872
C    32.070623   18.426158    3.409469
C     2.172489   18.426007    3.407271
C    17.833494   18.426267    3.393908
C     4.307823   19.658687    3.406584
C     7.156228   19.658696    3.409044
C    19.969216   19.659274    3.392627
C    24.240823   19.659276    3.395279
C    21.392070   19.659303    3.391018
C    25.663618   19.659271    3.399060
C     0.036815   19.658853    3.409986
C     2.885390   19.658757    3.407042
C    13.562450    1.164545    3.410988
C    17.833474    1.164660    3.402726
C    22.105049    1.164654    3.399509
C    26.376475    1.164621    3.408295
C    30.647631    1.164504    3.416054
C    14.985106    1.164617    3.408502
C    19.256265    1.164671    3.399886
C    23.527880    1.164657    3.401131
C    27.799178    1.164589    3.411422
C    32.070252    1.164301    3.415612
C    19.969220    2.397616    3.405924
C    24.240807    2.397599    3.410192
C    28.511927    2.397554    3.418264
C    17.120597    2.397651    3.407497
C    21.392059    2.397638    3.405925
C    25.663572    2.397586    3.412599
C    29.934577    2.397445    3.419589
C    32.783011    2.397250    3.418640
C    17.833448    3.630590    3.410743
C    22.105046    3.630554    3.412567
C    32.069904    3.630274    3.422482
C    19.256235    3.630581    3.410415
C    23.527876    3.630552    3.414086
C    27.799077    3.630507    3.420705
C    30.647256    3.630475    3.423542
C    19.969230    4.863514    3.413665
C    29.934432    4.863496    3.424519
C    21.392038    4.863509    3.414323
C    32.782713    4.863462    3.421850
C    17.833460    6.096468    3.413046
C    22.105085    6.096456    3.415052
C    32.069769    6.096639    3.422391
C    19.256229    6.096465    3.413004
C    23.527860    6.096462    3.416263
C    19.969253    7.329382    3.410720
C    25.663578    7.329446    3.415498
C    29.934464    7.329639    3.421374
C    21.392071    7.329354    3.410612
C    24.240856    7.329399    3.413836
C    28.511883    7.329521    3.420275
C    32.782703    7.329831    3.417988
C    23.527907    8.562337    3.406328
C    27.799147    8.562513    3.414055
C    32.069947    8.562891    3.416645
C    22.105106    8.562316    3.405366
C    26.376492    8.562426    3.411607
C    30.647396    8.562651    3.418144
C    32.783023    9.795855    3.413269
C    11.427024    9.795688    3.414536
C    15.697864    9.795370    3.409128
C    25.663624    9.795379    3.403164
C    29.934656    9.795640    3.413098
C     0.036435    9.796114    3.410942
C    12.849695    9.795467    3.413603
C    28.512025    9.795493    3.410617
C    30.647690   11.028543    3.410543
C     0.749743   11.029052    3.410853
C     5.020948   11.029225    3.411554
C     9.291594   11.028850    3.416497
C    13.562383   11.028453    3.413962
C    32.070313   11.028798    3.411598
C     2.172353   11.029206    3.410419
C     6.443427   11.029075    3.412633
C    10.714237   11.028542    3.416848
C    14.985086   11.028298    3.409335
C     2.885557   12.262051    3.412541
C     7.156183   12.261890    3.417257
C    11.426891   12.261505    3.419331
C     0.036854   12.261897    3.411146
C     4.307952   12.262010    3.413290
C     8.578686   12.261675    3.418519
C    12.849581   12.261367    3.416171
C    15.697878   12.261291    3.405209
C     0.750125   13.494707    3.411519
C     5.020857   13.494795    3.415926
C    14.985059   13.494271    3.407300
C     2.172527   13.494820    3.412350
C     6.443243   13.494684    3.417654
C    10.714039   13.494394    3.421119
C    13.562323   13.494339    3.414700
C     2.885594   14.727615    3.412602
C    12.849527   14.727292    3.417164
C     4.307907   14.727579    3.414028
C    15.697879   14.727258    3.402651
C     0.750218   15.960404    3.409603
C     5.020820   15.960354    3.413636
C    14.985034   15.960284    3.406457
C     2.172574   15.960398    3.410020
C     6.443157   15.960315    3.415901
C     2.885579   17.193185    3.408843
C     8.578575   17.193173    3.417416
C    12.849569   17.193259    3.416075
C     4.307884   17.193157    3.409604
C     7.156061   17.193114    3.414982
C    11.426866   17.193238    3.419607
C    15.697895   17.193247    3.403018
C     6.443250   18.425934    3.410026
C    10.714159   18.426206    3.416783
C    14.985110   18.426262    3.407074
C     5.020827   18.425908    3.408407
C     9.291499   18.426045    3.415732
C    13.562411   18.426204    3.413054
C    15.697896   19.659230    3.405689
C    28.512151   19.659266    3.408163
C    32.783474   19.659052    3.411829
C     8.578818   19.658956    3.410711
C    12.849704   19.659241    3.412860
C    17.120630   19.659281    3.400183
C    29.934846   19.659174    3.410821
C    11.427036   19.659073    3.414270
C    26.376425    3.630542    3.418987
C    24.240833    4.863497    3.418234
C    25.663562    4.863518    3.419761
C    28.511857    4.863515    3.423741
C    26.376419    6.096504    3.420397
C    30.647177    6.096611    3.424288
C    27.799065    6.096501    3.421880
C     9.291391   13.494558    3.421661
C     7.156036   14.727491    3.419350
C     8.578537   14.727415    3.421052
C    11.426809   14.727363    3.421440
C     9.291356   15.960289    3.421367
C    13.562325   15.960258    3.414465
C    10.714001   15.960319    3.421305
C     5.026414    3.632142    6.599253
C     5.741139    4.870166    6.577860
C    22.111642   13.496669    6.625322
C    22.824700   14.729998    6.624914
C     3.596778    3.632018    6.610049
C     5.025765    6.111141    6.578230
C     2.885758    7.347821    6.567002
C    20.688585   13.496232    6.626332
C    22.111609   15.962975    6.624102
C    19.975592   17.195745    6.626138
C     5.740420    2.393197    6.605340
C     7.171062    4.869627    6.576742
C     3.599972    6.107915    6.567718
C     5.740078    7.348596    6.576703
C    22.824427   12.263831    6.628104
C    24.247120   14.730936    6.625587
C    20.688811   15.962456    6.624713
C    22.824876   17.196139    6.625860
C     2.887225    4.869041    6.572856
C     1.458981    7.345433    6.565009
C     3.603751    8.582765    6.572263
C    19.975659   14.729359    6.625055
C    18.552818   17.195667    6.628763
C    20.688837   18.428846    6.628356
C     2.887822    2.394577    6.626535
C     1.461032    4.868165    6.584132
C     5.029942    8.584587    6.579228
C    19.975722   12.263173    6.628510
C    18.552594   14.729229    6.628036
C    22.112016   18.429155    6.627580
C     7.169847    2.393124    6.587291
C     7.886634    3.632849    6.582339
C     0.744609    6.105298    6.579929
C     7.169919    7.346878    6.552988
C     0.739406    8.581160    6.556985
C     2.888803    9.821494    6.567930
C    24.246997   12.264752    6.628643
C    24.959468   13.498241    6.628403
C    17.839868   15.962295    6.628589
C    24.247502   17.196822    6.627142
C    17.840249   18.428789    6.630759
C    19.975929   19.662075    6.631141
C     5.025540    1.160276    6.620382
C     3.602984    1.164045    6.629021
C     0.751282    3.627595    6.616394
C     7.886614    6.106498    6.586568
C     5.739552    9.814013    6.588726
C     1.457498    9.820620    6.561700
C    22.111644   11.030328    6.630869
C    20.688872   11.030041    6.632025
C    17.839854   13.496092    6.630077
C    24.959976   15.964209    6.627749
C    22.825033   19.662219    6.631816
C    18.553024   19.662113    6.633095
C     7.881512    1.161672    6.610328
C    24.960291    1.167997    6.639159
C    22.112198    1.167557    6.635600
C    20.689214    1.167507    6.635977
C     1.466808    2.393221    6.633025
C    24.247812    2.400737    6.642221
C    26.381940    3.634261    6.649961
C    24.960238    3.633755    6.647756
C    27.093225    4.867834    6.654038
C    26.381326    6.100742    6.650566
C    33.488735    6.108951    6.611528
C    32.774226    7.345402    6.616682
C    33.484864    8.578245    6.594906
C     7.881430    8.580670    6.589298
C    24.246958    9.798502    6.636754
C    22.824627    9.797589    6.636303
C    19.976006    9.797049    6.636198
C     7.163714    9.812786    6.597324
C    24.959140   11.031992    6.633786
C     7.875502   11.040896    6.623970
C     5.025468   11.046436    6.606248
C     3.603664   11.051510    6.601943
C    18.552781   12.262988    6.631157
C     7.161109   12.272599    6.633347
C     9.297175   13.500291    6.646162
C     7.873784   13.502491    6.644790
C    10.010212   14.732155    6.647864
C     9.297579   15.965063    6.644558
C    16.417241   15.962451    6.632645
C    15.705240   17.195728    6.635230
C    16.417806   18.428943    6.634943
C    24.960239   18.429942    6.631297
C     7.164290   19.659743    6.620592
C     5.740332   19.660351    6.623824
C     2.890068   19.661311    6.635464
C    24.247813   19.662683    6.632755
C     0.752739    1.164538    6.643325
C     9.304266    1.166671    6.617784
C    33.498616    1.166454    6.654179
C    12.150463    1.167878    6.640095
C    30.649685    1.168539    6.658031
C    13.572547    1.168036    6.642690
C    29.227856    1.169393    6.653373
C    26.382344    1.168405    6.641700
C    16.418322    1.167783    6.640164
C    17.840719    1.167604    6.637477
C    10.017947    2.400256    6.619453
C    32.780821    2.395057    6.660780
C    11.440036    2.401431    6.633862
C    31.360082    2.401400    6.664105
C    28.515226    2.401588    6.654026
C    14.284597    2.401078    6.645260
C    27.093956    2.401458    6.649089
C    15.706563    2.400980    6.643620
C    22.825342    2.400504    6.641578
C    18.553518    2.400679    6.641383
C    19.976298    2.400515    6.640190
C    33.492021    3.629406    6.642977
C     9.311410    3.634469    6.604994
C    12.151545    3.634336    6.639879
C    30.646143    3.634678    6.663994
C    29.225620    3.635428    6.660659
C    13.573317    3.634329    6.645819
C    16.418639    3.633906    6.646219
C    17.840949    3.633638    6.644595
C    20.689575    3.633348    6.644641
C    22.112306    3.633307    6.644575
C    10.020348    4.868484    6.616294
C    11.441129    4.868407    6.633688
C    31.352786    4.870089    6.661023
C    28.514174    4.868634    6.657815
C    32.774537    4.868778    6.640584
C    18.553814    4.866332    6.647102
C    19.976371    4.866103    6.646397
C    15.706452    4.866878    6.648430
C    14.284629    4.867336    6.649247
C    24.247683    4.866523    6.648447
C    22.825393    4.866155    6.647854
C     9.310084    6.103973    6.604671
C    24.959878    6.099732    6.649127
C    22.112209    6.098859    6.646743
C    30.644126    6.104620    6.655135
C    29.224417    6.103075    6.657907
C    12.151408    6.101847    6.641535
C    17.840810    6.099068    6.647158
C    16.418595    6.099569    6.648755
C    20.689644    6.098741    6.646975
C    13.572848    6.100713    6.648243
C    27.092552    7.334560    6.649667
C    18.553652    7.331608    6.645458
C    15.706126    7.332462    6.647804
C    19.976274    7.331394    6.644099
C    24.247257    7.332460    6.645055
C    22.825117    7.331734    6.645081
C    31.355733    7.339817    6.643212
C    10.018385    7.338434    6.615787
C    28.513206    7.336565    6.652482
C    14.284117    7.333555    6.649403
C    11.439777    7.335344    6.635083
C    24.959255    8.565806    6.642287
C    22.111961    8.564395    6.640194
C    20.689286    8.564149    6.640715
C    29.224428    8.570344    6.651207
C    17.840636    8.564448    6.642303
C    16.418174    8.565023    6.644860
C    26.380844    8.567389    6.643395
C    13.571869    8.566484    6.647413
C    30.645248    8.573477    6.646317
C     9.305620    8.572944    6.610298
C    12.149729    8.568333    6.643702
C    18.553222    9.797122    6.638180
C    15.705574    9.797938    6.642711
C    27.092320    9.800950    6.641826
C    14.283212    9.798953    6.646144
C    31.357329    9.806792    6.641435
C    28.513471    9.803139    6.645727
C    11.436858    9.800979    6.641938
C    10.014040    9.804494    6.631455
C    32.778317    9.811219    6.617196
C    17.840226   11.030125    6.634778
C    26.380897   11.033666    6.635672
C    16.417625   11.030506    6.638470
C    29.225587   11.036619    6.646386
C    13.570501   11.031672    6.644836
C    30.646905   11.039414    6.647757
C    12.147901   11.033098    6.646715
C     9.299013   11.036634    6.633691
C    33.493063   11.044443    6.621391
C     0.744961   11.052132    6.602437
C    27.092922   12.267194    6.635450
C    15.704910   12.263511    6.636919
C    28.514563   12.269109    6.640214
C    14.282371   12.264100    6.641771
C    11.434184   12.265634    6.646202
C    31.360542   12.271981    6.649526
C    10.010761   12.267597    6.645133
C    32.782756   12.275290    6.644025
C     5.738148   12.274836    6.629436
C     1.464033   12.279153    6.624642
C     2.887514   12.279303    6.621077
C    16.417151   13.496242    6.633824
C    26.381481   13.499739    6.631179
C    29.227471   13.502126    6.642134
C    13.569567   13.497039    6.641943
C    12.146523   13.497845    6.646087
C    30.649558   13.503965    6.647482
C    33.498484   13.506373    6.649855
C     0.751954   13.508928    6.644794
C     3.601973   13.508088    6.639222
C     5.024430   13.506055    6.639405
C    27.093950   14.733029    6.633468
C    28.515947   14.734536    6.637730
C    14.282050   14.729776    6.639882
C    11.433647   14.731066    6.646061
C    15.704630   14.729446    6.634355
C     1.467169   14.739269    6.649987
C     2.889369   14.738999    6.646190
C    32.786616   14.737966    6.651650
C    31.363923   14.736357    6.649205
C     7.160695   14.734596    6.645004
C     5.737889   14.736195    6.645027
C    26.382005   15.965439    6.630741
C     7.874099   15.965932    6.643752
C     5.025527   15.967838    6.642332
C    13.569888   15.963166    6.641484
C    12.146802   15.963698    6.645250
C    29.229208   15.967363    6.641354
C     0.754678   15.970166    6.650365
C    33.501080   15.969569    6.651685
C     3.603158   15.969286    6.645276
C    30.651768   15.968528    6.645655
C    10.011321   17.197418    6.642725
C     1.468378   17.200949    6.647532
C    32.788146   17.200983    6.650342
C     2.890739   17.200308    6.642846
C     7.161821   17.197622    6.636738
C     5.738979   17.198616    6.637513
C    14.282803   17.196013    6.640554
C    27.094703   17.198376    6.635071
C    11.434709   17.196961    6.643823
C    31.365275   17.200800    6.649451
C    28.516881   17.199502    6.639589
C     7.876116   18.429287    6.631850
C     5.026254   18.429399    6.632031
C     3.604204   18.430923    6.637327
C    12.148454   18.429727    6.643239
C     0.754674   18.431620    6.647062
C    33.501415   18.432324    6.651302
C     9.299505   18.430014    6.634637
C    30.651942   18.432614    6.649633
C    13.571121   18.429422    6.641902
C    26.382455   18.430733    6.634017
C    29.229553   18.432217    6.645424
C     1.467702   19.662156    6.643066
C    32.786816   19.663231    6.654252
C    10.014236   19.662213    6.632186
C    31.364201   19.664967    6.655763
C    14.283820   19.662386    6.641903
C    11.437341   19.662878    6.638417
C    28.516520   19.664214    6.645174
C    27.094627   19.663590    6.640168
C    15.706092   19.662217    6.638353
