640       
Geometry optimisation iteration:     5
Li    0.032305   19.673667    8.614261
Li    0.031953   14.741015    8.615417
Li    0.032197    9.808487    8.614384
Li    0.032180    4.877339    8.613952
Li    0.031620   17.206750    8.616053
Li    0.031873   12.276110    8.616552
Li    0.031911    7.343504    8.613889
Li    0.031846    2.411200    8.615941
Li    4.309315   19.674231    8.616081
Li    4.309220   14.741259    8.616309
Li    4.309124    9.808693    8.615920
Li    4.309201    4.877773    8.614844
Li    4.309632   17.206555    8.615061
Li    4.309537   12.275563    8.615926
Li    4.309685    7.343207    8.612923
Li    4.309321    2.410813    8.615643
Li    8.590135    4.878257    8.599382
Li    8.590265    9.807856    8.610994
Li    8.590122   14.741018    8.614706
Li    8.589949   19.673170    8.616196
Li    8.589781   17.206766    8.616303
Li    8.589940   12.275843    8.617197
Li    8.590122    7.343942    8.611754
Li    8.590637    2.412285    8.616889
Li   12.869346   17.206584    8.613409
Li   12.869226   12.275868    8.613978
Li   12.868864    7.343559    8.612124
Li   12.868647    2.411236    8.615710
Li   12.869002   19.673771    8.615610
Li   12.869208   14.741106    8.615995
Li   12.868958    9.808664    8.615965
Li   12.869088    4.877323    8.615343
Li   17.142527   19.673689    8.614384
Li   17.142524   14.741051    8.613827
Li   17.142687    9.808743    8.614447
Li   17.142479    4.877522    8.615683
Li   17.142744   17.206683    8.615759
Li   17.142773   12.276020    8.616444
Li   17.142501    7.343439    8.614396
Li   17.142780    2.410998    8.616259
Li   21.408283   17.206714    8.612250
Li   21.407305   12.275930    8.614927
Li   21.407511    7.343639    8.614701
Li   21.407477    2.411237    8.615722
Li   21.408018   19.673620    8.615393
Li   21.407991   14.740997    8.615190
Li   21.408278    9.808662    8.615734
Li   21.408374    4.877341    8.614792
Li   25.667964   19.673233    8.610029
Li   25.667977   14.741922    8.598487
Li   25.667641    9.808229    8.615503
Li   25.667618    4.877636    8.614118
Li   25.667685   17.206871    8.612809
Li   25.668365   12.277294    8.616650
Li   25.667733    7.343358    8.613823
Li   25.667752    2.410702    8.616068
Li   29.930169   17.206926    8.611379
Li   29.930014   12.275891    8.614860
Li   29.930696    7.343361    8.612972
Li   29.930679    2.411166    8.613786
Li   29.930511   19.673743    8.615459
Li   29.930636   14.740832    8.615894
Li   29.930603    9.808688    8.615220
Li   29.930691    4.877524    8.614460
Li    2.169727   18.439789    8.615846
Li    2.170075   13.507323    8.616164
Li    2.170018    8.575778    8.616369
Li    2.169677    3.644477    8.615715
Li    2.169842   15.974371    8.615860
Li    2.169581   11.042374    8.617145
Li    2.169883    6.109608    8.614920
Li    2.169823    1.178223    8.616504
Li    6.449771   18.439884    8.616545
Li    6.449815   13.507580    8.616362
Li    6.449612    8.576309    8.614430
Li    6.450151    3.644938    8.614340
Li    6.449831   15.974128    8.616104
Li    6.449910   11.042288    8.617468
Li    6.450049    6.109222    8.612469
Li    6.449610    1.177910    8.616386
Li   10.729371    3.645746    8.602409
Li   10.729837    8.575739    8.611084
Li   10.729831   13.507686    8.615225
Li   10.730195   18.439512    8.617299
Li   10.730121   15.974078    8.615637
Li   10.730203   11.042024    8.617301
Li   10.730218    6.109339    8.613039
Li   10.730119    1.178853    8.616846
Li   15.006335   15.974218    8.614065
Li   15.006457   11.042415    8.615146
Li   15.005530    6.109743    8.614258
Li   15.006249    1.178052    8.615518
Li   15.006536   18.439816    8.615448
Li   15.006498   13.507424    8.615642
Li   15.006322    8.575934    8.616129
Li   15.006555    3.644444    8.615450
Li   19.275490   18.439818    8.615757
Li   19.275130   13.507805    8.614848
Li   19.275339    8.576269    8.615310
Li   19.275522    3.644620    8.615951
Li   19.276144   15.974018    8.616001
Li   19.275929   11.042426    8.616732
Li   19.275874    6.109551    8.613782
Li   19.275914    1.177784    8.615929
Li   23.537642   15.974131    8.611365
Li   23.536693   11.042226    8.615501
Li   23.536990    6.109640    8.615633
Li   23.537052    1.178329    8.616613
Li   23.537767   18.439988    8.613488
Li   23.538432   13.507633    8.614524
Li   23.538061    8.576031    8.615810
Li   23.537989    3.644520    8.614772
Li   27.797448   18.439633    8.610572
Li   27.796821   13.509056    8.601518
Li   27.797387    8.575743    8.616916
Li   27.797406    3.644793    8.615101
Li   27.797504   15.973766    8.614377
Li   27.797763   11.043123    8.617002
Li   27.797760    6.109399    8.613560
Li   27.797463    1.177590    8.616134
Li   32.063263   15.974312    8.614019
Li   32.063973   11.042205    8.615595
Li   32.064096    6.109604    8.614321
Li   32.064229    1.178215    8.615129
Li   32.064064   18.439700    8.616209
Li   32.064390   13.507481    8.616308
Li   32.064476    8.576068    8.615402
Li   32.064400    3.644486    8.614806
C    22.108191    1.163465    3.337229
C    26.379692    1.163477    3.337568
C    30.651032    1.163462    3.337778
C     6.446079    1.163381    3.339361
C    10.717058    1.163368    3.339544
C     2.175109    1.163411    3.339232
C    14.988101    1.163376    3.339215
C    19.259314    1.163444    3.338923
C    23.530741    1.163472    3.339115
C    27.802211    1.163497    3.339546
C    32.073422    1.163482    3.339558
C     0.752771    1.163408    3.337448
C     5.023712    1.163357    3.337519
C     9.294690    1.163429    3.337678
C    13.565698    1.163380    3.337642
C    17.836841    1.163441    3.337110
C    15.701238    2.396364    3.337245
C    19.972480    2.396418    3.336955
C    24.243940    2.396449    3.337370
C     4.310608    2.396379    3.339416
C    28.515394    2.396462    3.337831
C     0.039647    2.396389    3.339497
C     8.581573    2.396407    3.339206
C    12.852575    2.396378    3.339353
C    17.123695    2.396396    3.338832
C    21.395011    2.396457    3.338776
C    25.666485    2.396451    3.339360
C    29.937883    2.396462    3.339624
C    32.786491    2.396440    3.337795
C     2.888199    2.396379    3.337671
C     7.159186    2.396384    3.337511
C    11.430154    2.396364    3.337549
C    13.565688    3.629369    3.337389
C    17.836869    3.629340    3.336822
C     2.175107    3.629374    3.339619
C    22.108213    3.629404    3.336886
C    26.379706    3.629397    3.337554
C     6.446096    3.629383    3.339065
C    10.717026    3.629371    3.338961
C    14.988117    3.629370    3.339067
C    19.259334    3.629387    3.338585
C    23.530747    3.629399    3.338914
C    27.802212    3.629410    3.339528
C    30.651014    3.629434    3.337838
C     0.752753    3.629365    3.337783
C     5.023734    3.629381    3.337542
C    32.073396    3.629405    3.339626
C     9.294670    3.629373    3.336961
C     0.039655    4.862364    3.339630
C    11.430121    4.862350    3.337071
C    15.701265    4.862364    3.337101
C    19.972522    4.862335    3.336703
C    24.243944    4.862341    3.337067
C     4.310600    4.862360    3.339419
C     8.581547    4.862347    3.338398
C    12.852500    4.862340    3.339030
C    17.123715    4.862331    3.338599
C    21.395019    4.862342    3.338496
C    25.666479    4.862348    3.339093
C    28.515418    4.862333    3.337675
C    29.937852    4.862379    3.339562
C    32.786516    4.862345    3.337798
C     2.888244    4.862338    3.337816
C     7.159207    4.862354    3.336811
C     9.294648    6.095318    3.336454
C    13.565667    6.095318    3.337238
C    17.836892    6.095307    3.336764
C    22.108224    6.095279    3.336757
C    32.073416    6.095314    3.339555
C     2.175125    6.095316    3.339614
C     6.446109    6.095327    3.338675
C    10.717013    6.095328    3.338533
C    14.988123    6.095360    3.339027
C    19.259376    6.095303    3.338497
C    23.530739    6.095298    3.338766
C    26.379674    6.095292    3.337376
C    27.802193    6.095258    3.339341
C    30.651010    6.095306    3.337668
C     0.752759    6.095338    3.337779
C     5.023729    6.095324    3.337288
C     7.159198    7.328292    3.336768
C    11.430123    7.328308    3.336972
C    15.701288    7.328319    3.337220
C    19.972509    7.328253    3.336787
C    29.937835    7.328245    3.339380
C     0.039675    7.328306    3.339454
C     4.310611    7.328314    3.339198
C     8.581553    7.328291    3.338352
C    12.852537    7.328320    3.339055
C    17.123747    7.328288    3.338783
C    21.395022    7.328225    3.338609
C    25.666468    7.328227    3.339198
C    24.243943    7.328216    3.337219
C    28.515346    7.328217    3.337562
C    32.786524    7.328266    3.337678
C     2.888229    7.328294    3.337637
C     5.023731    8.561303    3.337288
C     9.294650    8.561286    3.336879
C    13.565680    8.561315    3.337478
C    17.836870    8.561267    3.337005
C    27.802185    8.561215    3.339467
C    32.073441    8.561236    3.339338
C     2.175152    8.561301    3.339343
C     6.446077    8.561279    3.338869
C    10.717012    8.561309    3.338939
C    23.530737    8.561206    3.339094
C    14.988099    8.561296    3.339171
C    19.259338    8.561238    3.338783
C    22.108214    8.561214    3.337113
C    26.379674    8.561191    3.337603
C    30.651037    8.561210    3.337517
C     0.752814    8.561265    3.337471
C     7.159167    9.794276    3.337184
C    11.430158    9.794288    3.337585
C    15.701223    9.794274    3.337441
C    25.666464    9.794196    3.339442
C    29.937868    9.794182    3.339397
C     0.039719    9.794245    3.339047
C     4.310612    9.794291    3.339095
C    21.395012    9.794218    3.339162
C     8.581553    9.794303    3.338949
C    12.852555    9.794306    3.339517
C    17.123687    9.794255    3.339055
C    19.972497    9.794207    3.337265
C    24.243917    9.794217    3.337616
C    28.515378    9.794201    3.337721
C    32.786549    9.794212    3.337362
C     2.888254    9.794289    3.337309
C     5.023712   11.027275    3.337197
C     9.294663   11.027298    3.337502
C    13.565656   11.027277    3.337788
C    23.530744   11.027210    3.339422
C    27.802204   11.027204    3.339441
C    19.259302   11.027182    3.339292
C    32.073479   11.027201    3.339146
C     2.175183   11.027269    3.338820
C     6.446083   11.027286    3.339093
C    10.717050   11.027279    3.339511
C    14.988075   11.027243    3.339500
C    17.836801   11.027238    3.337429
C    22.108204   11.027183    3.337573
C    26.379669   11.027193    3.337660
C    30.651044   11.027142    3.337481
C     0.752835   11.027223    3.337035
C    32.786615   12.260170    3.337181
C     2.888284   12.260236    3.336860
C     7.159191   12.260255    3.337355
C    21.394999   12.260196    3.339476
C    11.430146   12.260245    3.337885
C    17.123594   12.260203    3.339463
C    25.666490   12.260202    3.339232
C    29.937869   12.260143    3.339199
C     0.039761   12.260184    3.338798
C     4.310620   12.260262    3.338735
C     8.581538   12.260263    3.339324
C    12.852521   12.260260    3.339649
C    15.701180   12.260199    3.337740
C    19.972453   12.260175    3.337742
C    24.243961   12.260201    3.337539
C    28.515393   12.260189    3.337428
C    30.651033   13.493149    3.337335
C     0.752865   13.493152    3.336811
C    19.259269   13.493180    3.339727
C     5.023739   13.493231    3.336891
C     9.294682   13.493198    3.337546
C    23.530767   13.493194    3.339170
C    27.802175   13.493183    3.338885
C    32.073470   13.493141    3.339039
C     2.175200   13.493196    3.338511
C     6.446081   13.493226    3.338890
C    10.717046   13.493212    3.339599
C    13.565661   13.493201    3.337908
C    17.836773   13.493167    3.337794
C    22.108213   13.493195    3.337622
C    14.988046   13.493177    3.339683
C    26.379675   13.493188    3.336988
C    17.123602   14.726144    3.339664
C    28.515352   14.726139    3.336988
C    32.786577   14.726117    3.337120
C     2.888282   14.726142    3.336648
C     7.159185   14.726154    3.337102
C    21.394996   14.726153    3.339498
C    25.666489   14.726180    3.338436
C    29.937850   14.726144    3.339000
C     0.039766   14.726154    3.338631
C     4.310632   14.726162    3.338501
C     8.581570   14.726146    3.339080
C    11.430176   14.726149    3.337790
C    12.852549   14.726129    3.339686
C    15.701142   14.726142    3.337884
C    19.972448   14.726167    3.337940
C    24.243955   14.726148    3.336878
C    26.379671   15.959156    3.336454
C    30.651036   15.959136    3.337258
C     0.752867   15.959139    3.336773
C     5.023744   15.959086    3.336740
C    14.988035   15.959121    3.339647
C    19.259261   15.959157    3.339701
C    23.530761   15.959129    3.338734
C    27.802171   15.959124    3.338527
C    32.073466   15.959112    3.339066
C     2.175187   15.959080    3.338427
C     6.446075   15.959096    3.338767
C     9.294698   15.959067    3.337377
C    10.717049   15.959092    3.339409
C    13.565663   15.959055    3.337818
C    17.836766   15.959127    3.337871
C    22.108217   15.959123    3.337333
C    24.243950   17.192099    3.336758
C    28.515365   17.192104    3.336950
C    32.786588   17.192099    3.337278
C     2.888269   17.192038    3.336703
C    12.852559   17.192027    3.339519
C    17.123618   17.192095    3.339547
C    21.395007   17.192123    3.339241
C    25.666480   17.192127    3.338389
C    29.937853   17.192130    3.339019
C     0.039747   17.192116    3.338775
C     4.310613   17.192038    3.338523
C     8.581553   17.192012    3.339163
C     7.159202   17.192024    3.337176
C    11.430173   17.192043    3.337659
C    15.701197   17.192057    3.337746
C    19.972449   17.192134    3.337714
C    22.108213   18.425110    3.337301
C    26.379694   18.425078    3.336889
C    30.651018   18.425118    3.337486
C     0.752829   18.425064    3.336968
C    10.717066   18.425008    3.339508
C    14.988107   18.425019    3.339423
C    19.259266   18.425104    3.339416
C    23.530748   18.425086    3.338858
C    27.802226   18.425108    3.338941
C     6.446098   18.424992    3.339052
C    32.073454   18.425095    3.339265
C     2.175192   18.425037    3.338715
C     5.023710   18.424998    3.337066
C     9.294662   18.424990    3.337613
C    13.565691   18.425012    3.337688
C    17.836764   18.425070    3.337556
C    24.243939   19.658069    3.337205
C    28.515394   19.658103    3.337580
C    32.786535   19.658088    3.337528
C     8.581566   19.658015    3.339430
C    12.852574   19.657994    3.339582
C    17.123662   19.658065    3.339106
C    21.394992   19.658087    3.339126
C     4.310588   19.657978    3.339067
C    25.666497   19.658068    3.338981
C    29.937862   19.658100    3.339473
C     0.039693   19.658030    3.339061
C     2.888246   19.658022    3.337198
C     7.159192   19.657980    3.337564
C    11.430191   19.657970    3.337831
C    15.701224   19.657997    3.337413
C    19.972464   19.658055    3.337376
C    10.007840    4.864904    6.720416
C     7.159876    4.864785    6.725953
C     7.872545    6.097423    6.720413
C     9.295170    6.097559    6.724138
C    27.091982   14.728742    6.720050
C    24.244876   14.728620    6.725968
C    24.956954   15.961270    6.720587
C    26.379796   15.961383    6.724597
C     7.872480    3.632111    6.724089
C     9.295128    3.632135    6.726423
C    11.430624    7.330496    6.728699
C    10.007828    7.330151    6.720526
C     7.159994    7.330181    6.724953
C     7.872335    8.563256    6.725021
C     9.295402    8.563262    6.728136
C    24.956876   13.495910    6.724306
C    26.379763   13.495946    6.726395
C    28.514849   17.194304    6.729042
C    27.091991   17.193924    6.720314
C    24.244948   17.193990    6.725052
C    24.956808   18.426954    6.724988
C    26.380068   18.426916    6.728037
C     7.872398    1.166149    6.731069
C     9.295453    1.166036    6.734709
C    12.144140    1.165422    6.731521
C     5.023775    1.165638    6.735874
C    33.498700    1.165951    6.731027
C     3.600224    1.165294    6.731842
C    16.415625    1.165416    6.731530
C     0.752149    1.165452    6.735114
C    13.567734    1.165287    6.735010
C    17.838357    1.165950    6.735085
C    20.685299    1.166273    6.732102
C    29.228161    1.166515    6.731072
C    30.651503    1.166312    6.734599
C    24.956773    1.166493    6.730585
C    22.108830    1.166556    6.735898
C    26.380178    1.166506    6.734087
C    10.007935    2.399191    6.725045
C     7.159926    2.399338    6.730399
C     5.737208    2.398989    6.729792
C    14.280556    2.398384    6.731267
C     2.887282    2.398429    6.735275
C    11.430833    2.398850    6.731349
C    31.363748    2.399160    6.730287
C     1.464400    2.398438    6.728786
C    18.550619    2.398709    6.729065
C    32.786251    2.398779    6.732155
C    15.703580    2.398489    6.732771
C    22.821489    2.399565    6.731571
C    27.092573    2.399602    6.728868
C    19.973240    2.399124    6.735454
C    28.515393    2.399561    6.734456
C    24.244422    2.399662    6.733502
C    12.143667    3.631962    6.727416
C    33.498318    3.631614    6.730352
C     3.600687    3.631674    6.730787
C    16.415953    3.631406    6.731576
C    20.685876    3.631904    6.731901
C    30.650979    3.632014    6.734012
C     0.751845    3.631388    6.734558
C     5.024317    3.631985    6.733188
C    13.567383    3.631704    6.734311
C    17.838772    3.631573    6.735142
C    29.227858    3.632235    6.730699
C    24.956947    3.632281    6.731457
C    22.109153    3.632252    6.735432
C    26.380065    3.632267    6.735007
C    27.092677    4.864652    6.730169
C    31.363386    4.864757    6.727536
C     1.464476    4.864655    6.730718
C    14.280303    4.864685    6.728405
C    18.550967    4.864660    6.731033
C    22.821569    4.864727    6.728569
C    28.515373    4.864791    6.731687
C    32.785947    4.864723    6.733556
C     2.887566    4.864697    6.732128
C    11.430574    4.864944    6.725531
C    15.703488    4.864700    6.735105
C    19.973689    4.864728    6.732427
C    24.244365    4.864683    6.734783
C     5.737354    4.864782    6.723926
C    24.956855    6.097051    6.730958
C    29.227895    6.097247    6.729565
C    33.498294    6.097844    6.730184
C    16.415852    6.097980    6.731438
C    20.685889    6.097462    6.730749
C    26.380061    6.097065    6.734177
C    30.651002    6.097535    6.733307
C     0.751891    6.097982    6.734363
C    17.838767    6.097851    6.734705
C    22.109154    6.097205    6.734565
C     3.600712    6.097761    6.729585
C    12.143565    6.097605    6.726677
C    13.567281    6.097782    6.732971
C     5.024389    6.097513    6.730929
C    24.244370    7.329700    6.732766
C    22.821416    7.329726    6.730889
C    27.092618    7.329721    6.728178
C    31.363732    7.330344    6.729548
C    18.550669    7.330690    6.728153
C    28.515486    7.329840    6.733947
C    32.786220    7.330746    6.731451
C    15.703433    7.331050    6.732757
C    19.973300    7.330317    6.734199
C     1.464475    7.330997    6.728733
C    14.280353    7.331007    6.730354
C     2.887424    7.331007    6.734312
C     5.737289    7.330468    6.726217
C    24.956746    8.562799    6.732037
C    29.228263    8.562814    6.731110
C    22.108782    8.562778    6.735605
C    26.380251    8.562798    6.735633
C    20.685315    8.563103    6.731599
C    33.498731    8.563518    6.730438
C    16.415554    8.564033    6.731224
C    30.651555    8.563161    6.734229
C    17.838336    8.563542    6.734459
C     3.600292    8.564123    6.731097
C     0.752186    8.564064    6.734714
C    13.567561    8.564141    6.734113
C    12.143909    8.563798    6.728393
C     5.023913    8.563823    6.733248
C    27.092580    9.796356    6.731372
C    24.244422    9.796433    6.735672
C    22.821188    9.796002    6.729695
C    28.515684    9.795954    6.733061
C    18.550175    9.796390    6.730717
C    31.364123    9.796028    6.728551
C    19.972951    9.796089    6.732952
C    32.786754    9.796399    6.734395
C    15.703057    9.796954    6.734494
C     1.464835    9.796952    6.731288
C    14.280285    9.797197    6.728973
C     2.887478    9.797286    6.733539
C     5.736456    9.797148    6.727950
C    10.008376    9.796793    6.727673
C    11.431418    9.797163    6.730434
C     7.159421    9.796891    6.732085
C    24.956796   11.029999    6.730954
C    26.380032   11.029921    6.734590
C    29.228013   11.029215    6.731215
C    22.109061   11.029395    6.735463
C    16.414967   11.029772    6.731028
C    20.685326   11.029102    6.732031
C    33.499364   11.029216    6.731233
C    17.837733   11.029266    6.734692
C    30.651618   11.029060    6.734992
C     0.752768   11.029804    6.735515
C     3.600251   11.030103    6.731882
C    12.144277   11.030342    6.731244
C    13.567596   11.030048    6.734274
C     7.872391   11.030325    6.730623
C     5.023501   11.030404    6.736075
C     9.295554   11.030323    6.733967
C    27.092081   12.263010    6.724714
C    24.244818   12.263132    6.730618
C    22.821921   12.262767    6.729746
C    31.364321   12.262138    6.731080
C    19.972836   12.262248    6.735198
C    28.515065   12.262626    6.731768
C    14.279974   12.262853    6.730732
C    18.549731   12.262205    6.729132
C     1.465323   12.262539    6.729309
C    15.702552   12.262572    6.731959
C    32.787257   12.262228    6.733451
C     5.736764   12.263360    6.732021
C    10.008381   12.263389    6.729510
C     2.887733   12.262904    6.735883
C    11.431122   12.263372    6.734299
C     7.159526   12.263478    6.733788
C    29.227573   13.495798    6.727363
C    16.414543   13.495390    6.730724
C    20.685807   13.495542    6.731061
C    33.499695   13.495233    6.731682
C     3.600782   13.495746    6.731877
C    13.567066   13.495767    6.734139
C    17.837419   13.495215    6.734323
C    22.109655   13.495864    6.733072
C    30.651312   13.495450    6.734652
C     0.753227   13.495422    6.735585
C    12.143935   13.496041    6.731012
C     7.872513   13.496169    6.731754
C     5.023865   13.496066    6.736033
C     9.295455   13.496179    6.735089
C    10.008581   14.728540    6.730747
C    14.279571   14.728509    6.727945
C    18.549797   14.728500    6.730902
C    31.364077   14.728456    6.728325
C     1.465677   14.728511    6.731003
C     5.736770   14.728546    6.729003
C    11.431196   14.728639    6.731653
C    15.702229   14.728526    6.733321
C    19.973081   14.728541    6.732028
C    28.514808   14.728778    6.726067
C    32.787204   14.728531    6.735474
C     2.888202   14.728581    6.733045
C     7.159352   14.728525    6.734815
C    22.822167   14.728596    6.723812
C     7.872467   15.960817    6.731216
C    12.144003   15.961028    6.730157
C    16.414580   15.961618    6.730607
C    33.499646   15.961812    6.731473
C     3.600818   15.961331    6.731029
C     9.295462   15.960882    6.734635
C    13.567079   15.961331    6.733336
C    17.837482   15.961831    6.734375
C     0.753209   15.961613    6.735471
C     5.023858   15.961005    6.734999
C    20.685805   15.961525    6.730129
C    29.227430   15.961438    6.726786
C    30.651131   15.961508    6.733244
C    22.109703   15.961291    6.730704
C     7.159477   17.193489    6.732993
C     5.736692   17.193534    6.731147
C    10.008446   17.193477    6.729057
C    14.279999   17.194115    6.729763
C     1.465341   17.194474    6.728649
C    11.431226   17.193601    6.733927
C    15.702545   17.194524    6.731311
C    32.787108   17.194824    6.733237
C     2.887760   17.194139    6.734607
C    18.549798   17.194754    6.729090
C    31.364111   17.194752    6.730007
C    19.972913   17.194772    6.734171
C    22.822022   17.194256    6.725808
C     7.872358   18.426521    6.732134
C    12.144383   18.426506    6.731267
C     5.023451   18.426507    6.735770
C     9.295607   18.426500    6.735688
C     3.600223   18.426819    6.731228
C    16.414961   18.427217    6.730711
C    33.499283   18.427796    6.731106
C    13.567681   18.426932    6.733937
C     0.752726   18.427256    6.734903
C    20.685335   18.427851    6.731033
C    17.837717   18.427729    6.734459
C    30.651504   18.427898    6.734206
C    29.227836   18.427566    6.727975
C    22.109163   18.427578    6.732693
C    10.008460   19.659998    6.731926
C     7.159421   19.660111    6.735802
C     5.736362   19.659726    6.729998
C    11.431511   19.659684    6.733043
C     1.464818   19.660100    6.730794
C    14.280390   19.659780    6.728821
C     2.887447   19.659765    6.733293
C    15.703080   19.660138    6.734148
C    32.786731   19.660672    6.734846
C    18.550106   19.660575    6.731355
C    31.364054   19.661017    6.728843
C    19.972930   19.661006    6.733183
C    22.821251   19.660852    6.727755
C    27.092497   19.660457    6.727186
C    28.515632   19.660857    6.730681
C    24.244458   19.660560    6.732089
