517       
Geometry optimisation iteration:    11
Li   10.838704    3.557521    8.503683
Li    8.354959    5.000089    8.489251
Li   10.792480    6.344614    8.541018
Li    8.387102    2.192809    8.568670
Li    9.581120    4.306470   11.065795
C     8.572104    4.868885    3.355571
C    25.657114   14.732636    3.339065
C     9.285386    3.635392    3.364736
C     7.149105    4.868865    3.351840
C     9.285220    6.102334    3.359540
C     6.436187    6.102296    3.350052
C     7.149260    7.335495    3.353390
C     8.572152    7.335751    3.358110
C    26.370112   13.499562    3.346110
C    24.234234   14.732621    3.340270
C    26.370155   15.965691    3.342469
C    23.521295   15.965737    3.342226
C    24.234288   17.198766    3.345870
C    25.657157   17.198786    3.345816
C     8.572359    2.402049    3.371614
C     6.436172    3.635497    3.359668
C    10.708547    3.635360    3.374243
C    10.708404    6.102297    3.371909
C     5.013420    6.102004    3.355830
C    25.657076   12.266534    3.354568
C    23.521256   13.499596    3.348503
C    27.792965   13.499584    3.353450
C    27.793014   15.965649    3.351475
C    22.098486   15.965699    3.351929
C     7.149322    2.402179    3.370215
C     5.013315    3.635530    3.365771
C    11.421554    4.868764    3.378194
C     4.300672    4.868829    3.363394
C     4.300859    7.335272    3.363725
C     9.285447    8.568990    3.370197
C     6.436498    8.568699    3.361865
C    24.234241   12.266569    3.357210
C    22.098480   13.499621    3.359328
C    28.505958   14.732599    3.356985
C    21.385570   14.732689    3.359442
C    21.385607   17.198733    3.362241
C    26.370120   18.431746    3.360317
C    23.521315   18.431806    3.358307
C     6.436483    1.168980    3.385912
C     9.285651    1.168838    3.386661
C    11.421554    2.402029    3.385832
C    12.844567    4.868818    3.392285
C    11.421480    7.335818    3.381956
C     5.013906    8.568244    3.367422
C    10.708268    8.568962    3.381167
C     7.149809    9.801575    3.375258
C     8.572398    9.801941    3.378080
C    23.521245   11.033644    3.376422
C    26.370015   11.033567    3.371166
C    28.505895   12.266582    3.367988
C    29.928736   14.732605    3.373896
C    28.505958   17.198639    3.365805
C    22.098503   18.431751    3.366336
C    27.792969   18.431668    3.369680
C    24.234244   19.664744    3.372595
C    25.657108   19.664754    3.373214
C    10.708488    1.168910    3.391559
C     5.013710    1.169306    3.392289
C     4.300789    2.402326    3.382456
C    12.844406    2.402355    3.395358
C    13.557265    3.635489    3.398917
C     2.878067    4.868761    3.378817
C     2.165556    6.101953    3.384477
C    12.844447    7.335472    3.397151
C     2.878301    7.334969    3.377869
C     4.301248    9.801274    3.384675
C    27.792864   11.033617    3.375902
C    22.098543   11.033719    3.386850
C    21.385596   12.266724    3.377631
C    29.928656   12.266634    3.380910
C    30.641579   13.499595    3.384593
C    19.962920   14.732692    3.377064
C    19.250024   15.965684    3.383962
C    29.928690   17.198549    3.383203
C    19.962908   17.198667    3.377738
C    21.385680   19.664705    3.385046
C    13.556998    1.169157    3.404959
C    22.098496    1.170057    3.397989
C    26.370046    1.170000    3.394127
C    23.521293    1.170092    3.392327
C    27.792879    1.169954    3.401160
C     2.878155    2.402525    3.396001
C     2.165537    3.635615    3.393865
C    13.557322    6.102288    3.401914
C     2.165757    8.568069    3.390690
C     2.878730    9.800941    3.394661
C    11.421351    9.802040    3.397586
C    25.657009    9.800663    3.388881
C    24.234203    9.800736    3.392415
C    28.505755    9.800695    3.395777
C    30.641481   11.033673    3.396174
C     5.014465   11.034031    3.397303
C     9.285671   11.034688    3.396474
C     6.436980   11.034368    3.392550
C    10.708160   11.034703    3.404051
C    19.963003   12.266799    3.393696
C    19.250063   13.499786    3.392226
C    30.641588   15.965547    3.387227
C    19.250149   18.431629    3.391289
C    19.962933   19.664601    3.395546
C    28.505834   19.664565    3.390990
C     8.572600   19.663441    3.399652
C     7.149849   19.663647    3.400462
C    11.421441   19.663455    3.405721
C    14.979626    1.169597    3.411044
C    15.692379    2.402567    3.415053
C    24.234172    2.402987    3.409874
C    25.657030    2.402965    3.409743
C    14.979978    3.635725    3.411599
C    14.980041    6.102100    3.417382
C     0.742993    6.101822    3.402491
C    13.557141    8.568781    3.410154
C    27.792813    8.567774    3.409385
C    26.369978    8.567785    3.407869
C     0.743207    8.567837    3.403493
C    29.928554    9.800750    3.402249
C    12.843990    9.801617    3.409940
C    21.385697    9.800900    3.409685
C    32.064199   11.033772    3.405795
C    32.777094   12.266679    3.409796
C     7.150246   12.267061    3.409326
C     8.572658   12.267291    3.409720
C    32.064246   13.499658    3.402564
C    32.064216   15.965472    3.407758
C    17.827430   15.965614    3.402484
C    30.641481   18.431446    3.401834
C    10.708328   18.430764    3.415904
C     9.285832   18.430621    3.414606
C    17.827491   18.431461    3.404320
C    12.844005   19.663941    3.409526
C    29.928600   19.664439    3.404317
C     4.301133   19.663826    3.412455
C    17.827540    1.169776    3.415787
C    30.641429    1.169750    3.421432
C    19.250256    1.169942    3.411675
C     0.743064    1.169601    3.424274
C     2.165649    1.169423    3.414140
C    19.962945    2.402914    3.422757
C    28.505768    2.402837    3.420606
C    17.115050    2.402831    3.421600
C    21.385683    2.402998    3.417855
C    29.928600    2.402767    3.426689
C     0.030363    2.402605    3.422444
C    26.369958    3.635871    3.425499
C    23.521246    3.635935    3.425977
C    27.792822    3.635834    3.428408
C     0.742950    3.635715    3.410789
C    15.692495    4.868966    3.421456
C     0.030366    4.868797    3.413530
C    25.656987    7.334871    3.422918
C    15.692526    7.335374    3.427453
C     0.030407    7.334898    3.408372
C    24.234185    7.334897    3.426211
C    28.505737    7.334835    3.425242
C    32.776950    7.334807    3.419772
C    23.521279    8.567851    3.413746
C    32.064178    8.567831    3.416624
C    14.979766    8.568296    3.423351
C    22.098576    8.567927    3.421662
C    30.641437    8.567811    3.416884
C    32.777018    9.800779    3.412082
C     0.030489    9.800887    3.410126
C    19.963087    9.801004    3.420607
C     0.743388   11.033749    3.414302
C    13.556769   11.034565    3.423669
C     2.166018   11.033913    3.410618
C    17.827680   11.034080    3.424015
C    19.250233   11.033930    3.412848
C     2.879088   12.266686    3.421614
C    11.421170   12.267412    3.421143
C     0.030552   12.266715    3.418897
C     4.301641   12.266854    3.416807
C    12.843618   12.267241    3.427221
C    17.114685   12.266954    3.422001
C     9.285767   13.499947    3.424717
C     6.437275   13.499709    3.424900
C    10.708127   13.499976    3.427804
C    17.827490   13.499848    3.410054
C    32.777079   14.732508    3.414123
C    17.114553   14.732755    3.413116
C     8.572756   17.197867    3.425981
C    32.777017   17.198348    3.421443
C    17.114623   17.198599    3.408820
C     7.150278   17.198070    3.428306
C    11.421251   17.198011    3.428041
C    15.692033   17.198388    3.420413
C     6.436958   18.430712    3.417694
C    14.979299   18.431370    3.418549
C    32.064162   18.431319    3.417736
C     5.014328   18.431078    3.423598
C    13.556749   18.430975    3.420240
C    15.692189   19.664136    3.414556
C    17.114831   19.664468    3.411503
C     2.878538   19.664137    3.421679
C    32.064154    1.169686    3.427609
C    32.776883    2.402712    3.430063
C    17.827603    3.635862    3.431567
C    22.098457    3.635941    3.430190
C    32.064194    3.635737    3.432147
C    19.250305    3.635906    3.434573
C    30.641431    3.635773    3.435139
C    19.962964    4.868980    3.442826
C    24.234169    4.868919    3.433823
C    29.928596    4.868814    3.436446
C    17.115119    4.868936    3.433095
C    21.385664    4.868944    3.440597
C    25.657005    4.868902    3.431993
C    28.505774    4.868828    3.435848
C    32.776920    4.868772    3.427228
C    17.827702    6.102116    3.440978
C    22.098495    6.101990    3.440711
C    32.064205    6.101832    3.427913
C    19.250354    6.102021    3.444830
C    27.792808    6.101857    3.432426
C    23.521238    6.101949    3.435722
C    26.369944    6.101908    3.431976
C    30.641440    6.101846    3.433606
C    19.963062    7.335076    3.441908
C    29.928574    7.334844    3.426150
C    17.115138    7.335087    3.437341
C    21.385729    7.334971    3.437080
C    17.827744    8.568207    3.437313
C    19.250337    8.568046    3.435278
C    15.692393    9.801406    3.430105
C    17.114960    9.801116    3.432017
C    14.979360   11.034166    3.429042
C    15.692118   12.267114    3.430112
C     0.743482   13.499556    3.429212
C     5.014792   13.499645    3.429006
C    14.979073   13.499924    3.431763
C     2.166154   13.499599    3.433218
C    13.556530   13.500013    3.434751
C     2.879127   14.732456    3.441569
C     7.150381   14.732509    3.432999
C    12.843553   14.732727    3.436016
C     0.030545   14.732502    3.429273
C     4.301762   14.732422    3.439586
C     8.572791   14.732508    3.431392
C    11.421131   14.732674    3.435362
C    15.691968   14.732736    3.426895
C     0.743396   15.965402    3.438349
C     5.014752   15.965354    3.440179
C    14.979068   15.965658    3.427960
C     2.166060   15.965295    3.443478
C    10.708181   15.965340    3.433217
C     6.437272   15.965183    3.435776
C     9.285834   15.965224    3.432748
C    13.556556   15.965443    3.433872
C     2.878916   17.198273    3.441280
C    12.843685   17.198272    3.428137
C     0.030448   17.198294    3.434197
C     4.301535   17.198079    3.437229
C     0.743239   18.431246    3.435966
C     2.165884   18.431083    3.435068
C    32.776935   19.664294    3.427673
C     0.030385   19.664131    3.431005
C     9.274923    3.655708    6.537038
C    26.361716   13.521450    6.604992
C     9.989502    4.891224    6.539408
C     7.124782    4.895154    6.544335
C     7.841541    6.134626    6.547218
C    27.074807   14.754335    6.604580
C    24.226498   14.754389    6.599163
C    24.939656   15.987298    6.598921
C     7.844062    3.655438    6.560662
C     9.272100    6.132961    6.556998
C    24.939594   13.521505    6.603225
C    26.361730   15.987295    6.601294
C     5.703625    4.892157    6.568995
C     7.131429    7.368693    6.569283
C    22.804270   14.754367    6.603364
C    24.226782   17.220258    6.602529
C     9.991292    2.415598    6.580267
C    11.421216    4.892095    6.576931
C     4.996593    6.127919    6.580163
C    27.074818   12.288517    6.614312
C    28.496813   14.754240    6.612766
C    22.091370   15.987213    6.606056
C     7.127058    2.416829    6.573104
C     5.709883    7.361918    6.581982
C     9.988381    7.371220    6.569865
C    24.226543   12.288626    6.611647
C    22.804553   17.220016    6.606687
C    27.074823   17.220297    6.608666
C    11.423120    2.413422    6.581873
C    12.139421    3.652874    6.586300
C     4.994762    3.656388    6.585962
C     7.848633    8.598885    6.586637
C    28.496760   12.288540    6.620807
C    29.209892   13.521417    6.621181
C    22.091237   13.521656    6.611745
C    24.939767   18.453254    6.611037
C     5.704767    2.421034    6.590250
C     3.575869    6.125659    6.604018
C    11.419353    7.369973    6.573215
C     4.999652    8.594469    6.606834
C     9.271614    8.603079    6.585339
C    22.804350   12.288791    6.617345
C    20.669055   15.986893    6.616912
C    28.496819   17.220116    6.618390
C    22.091981   18.452991    6.618338
C    26.361911   18.453288    6.613509
C     9.275133    1.176403    6.592071
C     7.845278    1.177988    6.580599
C     3.575044    3.657026    6.611315
C    12.137106    6.130333    6.591588
C     7.136413    9.829139    6.613234
C    26.361800   11.055526    6.622582
C    24.939672   11.055678    6.623093
C    20.668987   13.521727    6.623224
C    29.209890   15.987155    6.620756
C    24.227146   19.686222    6.624070
C     2.864597    4.891661    6.615819
C     2.864997    7.359412    6.619839
C     3.577645    8.592291    6.622902
C     5.713847    9.826245    6.622323
C     9.988913    9.830830    6.609852
C    19.956000   14.754424    6.624197
C    19.956576   17.219726    6.625840
C    20.669631   18.452424    6.628034
C    22.804858   19.685834    6.628499
C    27.074787   19.686268    6.629915
C    12.132463    1.181073    6.614363
C     4.997297    1.186448    6.617495
C    24.939878    1.191584    6.640829
C     2.864636    2.422669    6.634697
C    13.562402    3.656094    6.617894
C    12.131425    8.601150    6.607233
C    11.412838    9.830520    6.618386
C    29.209722   11.055672    6.634625
C    22.091678   11.055994    6.634840
C     7.851699   11.059754    6.636193
C    19.956298   12.289259    6.638865
C    30.631752   13.521467    6.635054
C    29.209680   18.453126    6.634231
C    28.496858   19.686123    6.638845
C    13.555334    1.187238    6.628368
C     3.576057    1.189149    6.641020
C    22.092605    1.191260    6.647777
C    26.362105    1.191663    6.642385
C    14.268574    2.421204    6.632252
C    14.270611    4.891550    6.634143
C     1.443210    4.891291    6.639360
C     0.731448    6.124877    6.646126
C    13.561220    6.126649    6.621871
C     1.443348    7.358362    6.639310
C    24.226913    9.822721    6.640486
C    27.074759    9.822604    6.638760
C    28.496794    9.822703    6.642521
C    22.804716    9.823089    6.647948
C     2.866010    9.824887    6.644288
C    30.631668   11.055897    6.643898
C    20.669439   11.056429    6.646430
C     5.001708   11.058036    6.648475
C     9.274395   11.061236    6.633747
C    31.344724   12.288760    6.645786
C    31.344778   14.754178    6.645027
C    18.533737   14.754265    6.640000
C    17.820910   15.986908    6.644884
C    30.631721   15.986929    6.637221
C    18.534265   17.219231    6.639417
C     7.132525   19.673483    6.617358
C     9.991636   19.674290    6.621946
C    11.415355   19.677805    6.627484
C     5.710788   19.680693    6.633309
C    19.957622   19.685367    6.643624
C    20.670067    1.190743    6.655049
C    29.209500    1.191553    6.658495
C     1.443124    2.423637    6.655006
C    22.804982    2.424264    6.663707
C    27.074754    2.424647    6.661989
C    24.227415    2.424569    6.659257
C     0.731537    3.657408    6.654163
C    14.267842    7.360860    6.640781
C     0.731437    8.591374    6.650855
C    13.554258    8.594628    6.633264
C    31.344411    9.823040    6.656165
C     1.444159    9.824127    6.654633
C     3.579604   11.057115    6.657399
C    12.126349   11.060256    6.648743
C    18.533996   12.289476    6.653192
C     5.715781   12.289772    6.666354
C     9.988910   12.291623    6.657741
C     7.138315   12.290778    6.660102
C    17.820674   13.522010    6.651884
C    31.344484   17.219767    6.652637
C    17.822241   18.452063    6.647786
C    30.631540   18.452714    6.649679
C    14.265106   19.682721    6.646306
C    18.535089   19.684699    6.651415
C    16.400968    1.189424    6.656210
C     0.731318    1.190141    6.671401
C    17.823587    1.190198    6.661031
C    30.631564    1.191209    6.667884
C    15.690667    2.423036    6.652072
C    32.766351    2.424178    6.676348
C    28.496941    2.424599    6.667319
C    33.478629    3.657613    6.670021
C    16.401682    3.656745    6.667065
C    26.362191    3.657602    6.674086
C    24.939918    3.657516    6.674691
C    15.691637    4.891153    6.661270
C    32.766472    4.890986    6.672336
C    33.478569    6.124397    6.663317
C    31.344163    7.357146    6.672104
C    32.766332    7.357611    6.665467
C    26.361971    8.589624    6.654291
C    24.939780    8.589789    6.656875
C    29.209610    8.589821    6.659834
C    22.092362    8.590190    6.670224
C    30.631631    8.590111    6.662590
C    33.478708    8.590714    6.660302
C    32.766346    9.823581    6.659787
C    19.957231    9.823693    6.667418
C    14.264693    9.826439    6.657908
C    33.479230   11.056334    6.663125
C    17.821716   11.056976    6.668000
C     0.731852   11.056770    6.665981
C    13.549542   11.058212    6.660236
C    32.766558   12.288977    6.659758
C    15.685281   12.289697    6.671397
C    11.411763   12.291587    6.661403
C    16.398232   13.521984    6.665528
C    33.479522   13.521516    6.671247
C     9.275075   13.522545    6.673192
C     7.852284   13.522027    6.676230
C    32.766516   14.754033    6.665228
C    15.684865   14.754495    6.667282
C    16.398403   15.986695    6.659209
C    14.262874   17.218774    6.666215
C    15.685830   17.219281    6.660051
C     9.274734   18.445262    6.643078
C     7.851175   18.445475    6.645407
C    12.127350   18.448302    6.652219
C     5.000095   18.448834    6.668835
C    13.550846   18.450616    6.654657
C    16.399579   18.451552    6.654812
C    15.688229   19.684242    6.651988
C     2.865191   19.683352    6.668663
C    31.344147   19.685692    6.665750
C    33.478518    1.190830    6.677348
C    31.344076    2.424437    6.678389
C    19.958245    2.423959    6.673423
C    18.535436    2.423528    6.673934
C    30.631754    3.657654    6.682078
C    29.209491    3.657652    6.681057
C    17.824117    3.657057    6.681439
C    20.670113    3.657200    6.687331
C    22.092907    3.657348    6.682560
C    22.805022    4.890556    6.690570
C    24.227524    4.890527    6.685181
C    31.344135    4.890906    6.681961
C    28.496974    4.890664    6.683884
C    27.074796    4.890613    6.682799
C    29.209548    6.123750    6.682133
C    26.362158    6.123613    6.680535
C    24.939880    6.123652    6.683234
C    16.401578    6.125364    6.677900
C    30.631753    6.124048    6.680172
C    28.496913    7.356781    6.671419
C    27.074765    7.356685    6.670688
C    24.227322    7.356731    6.675074
C    22.804945    7.357075    6.682275
C    15.690205    7.358834    6.668315
C    20.669973    8.590656    6.679533
C    17.823148    8.591368    6.686577
C    16.400662    8.592244    6.678973
C    15.687512    9.824845    6.672142
C    18.534837    9.824263    6.676048
C    16.399274   11.057405    6.673392
C    14.262442   12.290096    6.672775
C     2.866934   12.289433    6.677395
C     1.445043   12.289162    6.678183
C    13.548484   13.522347    6.676205
C    12.125463   13.522759    6.676277
C     0.732053   13.521579    6.684628
C     3.580444   13.521597    6.691595
C     5.002529   13.521647    6.686677
C     5.716131   14.753707    6.695087
C     7.138651   14.753236    6.688568
C    14.262066   14.754447    6.676335
C    11.411862   14.754254    6.680527
C     9.988870   14.753776    6.681902
C    12.125697   15.985951    6.678523
C     9.274998   15.984612    6.680612
C     7.852300   15.984604    6.685604
C    33.479267   15.986597    6.679255
C    13.548866   15.986657    6.674840
C    11.412328   17.216868    6.667390
C     9.989278   17.215646    6.667508
C     7.137632   17.215300    6.674672
C     5.715151   17.217669    6.684535
C    32.766217   17.219337    6.672000
C     3.578106   18.450947    6.682152
C     0.731377   18.451554    6.689313
C    33.478704   18.452191    6.681655
C    32.766094   19.685231    6.676214
C     1.443434   19.684544    6.679328
C    18.535397    4.890817    6.694943
C    19.958228    4.890650    6.698150
C    20.670078    6.124096    6.699771
C    22.092816    6.123849    6.694272
C    17.824021    6.124660    6.693841
C    19.958014    7.357534    6.695111
C    18.535380    7.358099    6.695664
C     1.445105   14.753923    6.697430
C     2.866989   14.753809    6.702080
C     3.580028   15.986233    6.704423
C     5.002179   15.985559    6.699180
C     0.731814   15.986275    6.695152
C     2.866118   17.218299    6.699386
C     1.444330   17.218941    6.698368
