546       
Geometry optimisation iteration:    17
Li    8.581806    4.867619    8.711093
Li   25.659400   14.733547    8.711802
C    10.019292    4.864948    6.828091
C     7.148738    4.864921    6.831240
C     7.864525    6.109067    6.830868
C     9.303567    6.109043    6.829466
C    27.101664   14.728823    6.836964
C    24.231580   14.728813    6.824567
C    24.947300   15.972978    6.827636
C    26.386099   15.972897    6.833945
C     7.864405    3.620567    6.830181
C     9.303653    3.620632    6.828775
C    11.434061    7.335057    6.845569
C    10.011423    7.338961    6.834504
C     7.156550    7.338983    6.836419
C     7.868048    8.566692    6.849440
C     9.299832    8.566655    6.849230
C    24.947207   13.484523    6.827360
C    26.386154   13.484609    6.833687
C    28.516609   17.198874    6.852235
C    27.093995   17.202814    6.840140
C    24.239730   17.202932    6.833054
C    24.951258   18.430561    6.849440
C    26.382869   18.430627    6.850213
C     7.868089    1.163092    6.847715
C     9.299766    1.163145    6.847488
C    12.143593    1.160449    6.853034
C     5.024004    1.160361    6.854220
C    33.495345    1.169568    6.857256
C     3.594241    1.161065    6.856187
C    16.412856    1.168338    6.856829
C     0.754022    1.168246    6.856405
C    13.573148    1.161162    6.855919
C    17.840511    1.169697    6.858154
C    20.680416    1.165093    6.858993
C    29.225168    1.164951    6.857131
C    30.655084    1.164951    6.856720
C    24.952996    1.172762    6.852335
C    22.110192    1.165225    6.858642
C    26.382198    1.172730    6.850909
C    10.011472    2.390738    6.831973
C     7.156471    2.390667    6.833939
C     5.733766    2.394946    6.848404
C    14.284452    2.397317    6.854830
C     2.882977    2.397221    6.854525
C    11.434101    2.395046    6.845800
C    31.365498    2.400325    6.855641
C     1.461496    2.398208    6.845361
C    18.548543    2.399276    6.848239
C    32.787383    2.399199    6.846035
C    15.705755    2.398313    6.846069
C    22.822061    2.401542    6.858588
C    27.090563    2.401400    6.845081
C    19.970263    2.400473    6.858759
C    28.513471    2.401464    6.857830
C    24.244908    2.401445    6.846280
C    12.146284    3.632954    6.844595
C    33.494634    3.629150    6.858756
C     3.594363    3.633802    6.850781
C    16.413708    3.628700    6.858787
C    20.681843    3.635931    6.856671
C    30.654066    3.635889    6.854135
C     0.753552    3.628660    6.857543
C     5.021546    3.632879    6.848021
C    13.573306    3.633913    6.850114
C    17.841650    3.629199    6.860529
C    29.224905    3.636203    6.856931
C    24.953505    3.630479    6.860598
C    22.110907    3.636157    6.858298
C    26.382302    3.630589    6.859449
C    27.094015    4.865094    6.858542
C    31.361830    4.865192    6.843565
C     1.464991    4.865315    6.854142
C    14.281271    4.865137    6.841013
C    18.552670    4.865316    6.858274
C    22.819496    4.864967    6.848882
C    28.516308    4.865094    6.847115
C    32.783566    4.865404    6.856328
C     2.886318    4.865073    6.840641
C    11.442079    4.864941    6.830952
C    15.702403    4.865309    6.855498
C    19.974239    4.865097    6.845899
C    24.241742    4.865047    6.860851
C     5.725851    4.864880    6.835967
C    24.953576    6.099428    6.859597
C    29.224871    6.094053    6.859072
C    33.494871    6.101451    6.855894
C    16.413712    6.101788    6.855820
C    20.681642    6.094296    6.858134
C    26.382160    6.099375    6.858473
C    30.654295    6.094538    6.855795
C     0.753567    6.101864    6.854642
C    17.841431    6.101249    6.857561
C    22.110929    6.093861    6.860260
C     3.594341    6.096291    6.851818
C    12.146153    6.097046    6.846510
C    13.573365    6.096352    6.851162
C     5.021697    6.096973    6.849899
C    24.244848    7.328438    6.849138
C    22.821932    7.328630    6.859610
C    27.090563    7.328574    6.847912
C    31.365709    7.330322    6.854865
C    18.548341    7.331106    6.847420
C    28.513542    7.328910    6.858864
C    32.787607    7.331343    6.845394
C    15.705607    7.332108    6.844841
C    19.970044    7.329971    6.857810
C     1.461699    7.332192    6.844172
C    14.284326    7.333208    6.852797
C     2.883165    7.333155    6.852493
C     5.733860    7.335022    6.848113
C    24.952817    8.557180    6.859568
C    29.225421    8.565214    6.856319
C    22.109889    8.564768    6.857927
C    26.382266    8.557259    6.858128
C    20.680304    8.565119    6.856939
C    33.495504    8.560983    6.859399
C    16.412503    8.562169    6.858525
C    30.655167    8.565463    6.854717
C    17.840375    8.560725    6.860229
C     3.594583    8.569061    6.851288
C     0.754422    8.562260    6.858089
C    13.572917    8.569126    6.851035
C    12.143569    8.569628    6.848066
C     5.024111    8.569557    6.849244
C    27.093977    9.793385    6.853657
C    24.240535    9.793180    6.855597
C    22.817007    9.793579    6.845516
C    28.517646    9.793872    6.843898
C    18.550214    9.796485    6.859167
C    31.363364    9.795613    6.845079
C    19.971904    9.795190    6.846864
C    32.785253    9.796767    6.858341
C    15.701515    9.797812    6.856183
C     1.465377    9.797903    6.856004
C    14.279796    9.798767    6.843889
C     2.887323    9.798700    6.844005
C     5.733286    9.800039    6.840170
C    10.010718    9.800618    6.849552
C    11.434366    9.800097    6.839513
C     7.157008    9.800585    6.849431
C    24.951279   11.026943    6.847871
C    26.382742   11.026938    6.848783
C    29.226535   11.024398    6.855228
C    22.107937   11.024078    6.854587
C    16.411345   11.033345    6.856222
C    20.678519   11.024869    6.856766
C    33.496430   11.032267    6.857254
C    17.838992   11.032014    6.857642
C    30.656239   11.025240    6.854934
C     0.755126   11.033416    6.856478
C     3.595686   11.028708    6.858285
C    12.141566   11.029008    6.855784
C    13.571446   11.028776    6.857508
C     7.869093   11.036504    6.850444
C     5.025773   11.028863    6.856948
C     9.298456   11.036514    6.850653
C    27.093978   12.254703    6.838050
C    24.239695   12.254519    6.830765
C    22.817259   12.258760    6.845776
C    31.367330   12.261247    6.852721
C    19.967287   12.260982    6.855352
C    28.516595   12.258976    6.852776
C    14.281741   12.264230    6.857480
C    18.546069   12.261964    6.846850
C     1.463086   12.263061    6.846767
C    15.703433   12.263035    6.845935
C    32.788833   12.262142    6.845466
C     5.737546   12.265239    6.856616
C    10.006775   12.265194    6.843976
C     2.885044   12.264135    6.858312
C    11.429765   12.265322    6.855329
C     7.160580   12.265158    6.844174
C    29.228837   13.496913    6.851716
C    16.410260   13.493061    6.857825
C    20.678189   13.497567    6.850561
C    33.496885   13.492447    6.859245
C     3.596756   13.499709    6.856436
C    13.570102   13.499813    6.855289
C    17.838145   13.492372    6.859052
C    22.105051   13.496725    6.843810
C    30.655986   13.497702    6.850451
C     0.755841   13.493054    6.858870
C    12.140936   13.499993    6.855804
C     7.869147   13.494297    6.859049
C     5.026122   13.499898    6.857326
C     9.298101   13.494267    6.859088
C    10.009905   14.728881    6.858543
C    14.277814   14.728983    6.843879
C    18.549455   14.729130    6.857277
C    31.363931   14.728941    6.841121
C     1.466852   14.729124    6.855678
C     5.734844   14.728761    6.847414
C    11.432271   14.728850    6.846260
C    15.699423   14.729181    6.854639
C    19.970471   14.728882    6.842305
C    28.524495   14.728802    6.842006
C    32.785252   14.729144    6.856742
C     2.888749   14.728888    6.844851
C     7.157290   14.728826    6.858668
C    22.809004   14.728701    6.828000
C     7.869226   15.963179    6.858009
C    12.140904   15.957787    6.857871
C    16.410464   15.965122    6.854992
C    33.496892   15.965699    6.856335
C     3.596533   15.958072    6.858007
C     9.297966   15.963257    6.858047
C    13.570284   15.958152    6.856951
C    17.838129   15.965772    6.856141
C     0.755613   15.965047    6.856068
C     5.026128   15.957692    6.859298
C    20.678170   15.960172    6.851642
C    29.228726   15.960828    6.853488
C    30.656029   15.960177    6.851436
C    22.105204   15.960803    6.845779
C     7.160499   17.192285    6.846802
C     5.737385   17.192499    6.857433
C    10.006805   17.192336    6.846686
C    14.281932   17.193960    6.856644
C     1.462859   17.194947    6.845976
C    11.429859   17.192567    6.856299
C    15.703632   17.195090    6.845211
C    32.788652   17.195903    6.844258
C     2.884805   17.193886    6.857373
C    18.546246   17.196029    6.845643
C    31.367190   17.196902    6.850647
C    19.967445   17.197037    6.853308
C    22.817290   17.198931    6.845527
C     7.868899   18.420974    6.857453
C    12.141831   18.428710    6.854999
C     5.025426   18.428682    6.856079
C     9.298544   18.420987    6.857730
C     3.595522   18.429044    6.856166
C    16.411475   18.424806    6.858286
C    33.496045   18.425826    6.858948
C    13.571530   18.429146    6.855436
C     0.754954   18.424652    6.858495
C    20.678769   18.432928    6.851875
C    17.839326   18.426046    6.859377
C    30.656016   18.432737    6.850023
C    29.226571   18.433357    6.850131
C    22.107985   18.433520    6.849635
C    10.010769   19.657023    6.853515
C     7.156879   19.657035    6.853304
C     5.733096   19.657428    6.843452
C    11.434458   19.657504    6.842833
C     1.465065   19.660342    6.856510
C    14.280015   19.659174    6.845193
C     2.887030   19.659073    6.845318
C    15.701753   19.660504    6.856666
C    32.784989   19.661546    6.857792
C    18.550466   19.661721    6.858669
C    31.363165   19.662408    6.843754
C    19.972124   19.662648    6.845543
C    22.817153   19.663958    6.842139
C    27.093963   19.664379    6.849551
C    28.517583   19.663801    6.840540
C    24.240664   19.664517    6.851579
Li    0.029409   19.648782    4.972114
Li    0.032094   14.716494    4.972115
Li    0.029635    9.783315    4.972069
Li    0.026908    4.851886    4.971064
Li    4.307021   17.178977    4.972558
Li    4.307123   12.252711    4.972628
Li    4.300425    7.325450    4.966216
Li    4.300464    2.379314    4.968093
Li    8.585538    4.852676    4.961382
Li    8.587051    9.795397    4.964950
Li    8.586968   14.716339    4.972492
Li    8.587114   19.636503    4.968701
Li   12.865693   17.179010    4.971281
Li   12.865783   12.252664    4.971256
Li   12.873826    7.325940    4.965116
Li   12.873678    2.379011    4.967048
Li   17.137494   19.649055    4.972041
Li   17.134146   14.716378    4.970984
Li   17.137139    9.783074    4.972013
Li   17.140697    4.851753    4.972164
Li   21.388019   17.188358    4.965478
Li   21.388193   12.243140    4.967309
Li   21.399162    7.316878    4.972618
Li   21.399119    2.387941    4.972665
Li   25.658582   19.661274    4.965085
Li   25.665218   14.717113    4.961403
Li   25.658659    9.771150    4.968873
Li   25.658594    4.851586    4.972583
Li   29.932461   17.187090    4.966088
Li   29.932237   12.244474    4.967974
Li   29.925162    7.317031    4.971251
Li   29.925141    2.387871    4.971206
C    10.010172    4.865131    3.093702
C     7.157237    4.865091    3.093984
C     7.868962    6.101442    3.094809
C     9.298459    6.101481    3.094749
C    27.094300   14.728916    3.092978
C    24.241782   14.728899    3.092326
C    24.953398   15.965239    3.093782
C    26.382729   15.965263    3.094217
C     7.868869    3.628570    3.091068
C     9.298552    3.628600    3.090995
C    11.429510    7.331524    3.083131
C    10.006769    7.331629    3.097915
C     7.160696    7.331615    3.097784
C     7.868973    8.561613    3.079937
C     9.298482    8.561612    3.079756
C    24.953289   13.492419    3.090057
C    26.382783   13.492423    3.090540
C    28.513368   17.195370    3.080336
C    27.090780   17.195495    3.096801
C    24.245238   17.195380    3.096583
C    24.953321   18.425380    3.079152
C    26.382676   18.425505    3.080112
C     7.869066    1.168373    3.083708
C     9.298331    1.168418    3.083473
C    12.140649    1.162843    3.078587
C     5.026690    1.162728    3.079091
C    33.495358    1.169348    3.082084
C     3.597089    1.162739    3.077900
C    16.411931    1.169111    3.082717
C     0.755201    1.169138    3.083092
C    13.570186    1.162793    3.076720
C    17.840907    1.169232    3.082143
C    20.682476    1.163570    3.079900
C    29.224406    1.163718    3.076706
C    30.653639    1.163753    3.079492
C    24.953401    1.169750    3.074440
C    22.111657    1.163645    3.078297
C    26.382568    1.169738    3.075201
C    10.006758    2.398393    3.097191
C     7.160677    2.398350    3.097120
C     5.737884    2.398722    3.083833
C    14.281559    2.399134    3.077989
C     2.885729    2.399074    3.079388
C    11.429532    2.398814    3.083928
C    31.364527    2.399582    3.082425
C     1.463019    2.399135    3.091905
C    18.549005    2.399259    3.092185
C    32.787151    2.399376    3.092036
C    15.704202    2.399146    3.091262
C    22.822861    2.399536    3.079849
C    27.090474    2.399684    3.087345
C    19.971545    2.399419    3.082260
C    28.513035    2.399666    3.077990
C    24.245390    2.399604    3.087359
C    12.140929    3.634856    3.084790
C    33.494976    3.629299    3.079388
C     3.597159    3.634948    3.081118
C    16.412032    3.629294    3.081024
C    20.682760    3.635174    3.082695
C    30.653318    3.635306    3.082127
C     0.755134    3.629296    3.080692
C     5.026422    3.634791    3.085169
C    13.570137    3.635029    3.080077
C    17.841300    3.629198    3.080180
C    29.224316    3.635407    3.080692
C    24.953368    3.629426    3.077306
C    22.111691    3.635204    3.082283
C    26.382537    3.629539    3.078069
C    27.093588    4.865201    3.081125
C    31.361253    4.865246    3.090865
C     1.466186    4.865282    3.082058
C    14.278316    4.865141    3.090027
C    18.552372    4.865278    3.080566
C    22.819655    4.865040    3.091068
C    28.516180    4.865164    3.090518
C    32.783842    4.865390    3.079742
C     2.888957    4.865096    3.090888
C    11.432891    4.865048    3.098524
C    15.701033    4.865274    3.082099
C    19.974894    4.865113    3.091324
C    24.242184    4.865146    3.079767
C     5.734507    4.864975    3.098884
C    24.953429    6.100687    3.080968
C    29.224210    6.094980    3.078219
C    33.495138    6.101246    3.081314
C    16.412081    6.101092    3.082719
C    20.682639    6.095073    3.079808
C    26.382413    6.100654    3.081707
C    30.653453    6.095215    3.079352
C     0.755087    6.101123    3.082409
C    17.841147    6.101147    3.082123
C    22.111764    6.094916    3.079736
C     3.597109    6.095219    3.077622
C    12.140813    6.095297    3.081888
C    13.570229    6.095264    3.076479
C     5.026588    6.095222    3.082325
C    24.245339    7.330408    3.089993
C    22.822822    7.330735    3.080654
C    27.090463    7.330444    3.090009
C    31.364588    7.331107    3.081836
C    18.548936    7.331025    3.091620
C    28.513022    7.330841    3.078931
C    32.787235    7.331109    3.091465
C    15.704123    7.331199    3.089893
C    19.971471    7.330997    3.081559
C     1.463133    7.331197    3.090598
C    14.281484    7.331387    3.075774
C     2.885845    7.331334    3.077300
C     5.737970    7.331494    3.083040
C    24.953239    8.560300    3.076675
C    29.224518    8.566612    3.080301
C    22.111482    8.566481    3.081694
C    26.382621    8.560373    3.077427
C    20.682498    8.566646    3.082349
C    33.495373    8.561154    3.079487
C    16.411732    8.561313    3.079703
C    30.653594    8.566716    3.082075
C    17.840910    8.561106    3.079633
C     3.597350    8.567452    3.077773
C     0.755442    8.561316    3.080079
C    13.570002    8.567515    3.076473
C    12.140701    8.567398    3.078475
C     5.026711    8.567373    3.078968
C    27.093726    9.796387    3.080024
C    24.242026    9.796380    3.078567
C    22.819405    9.796424    3.089950
C    28.516419    9.796471    3.089675
C    18.551831    9.797006    3.080377
C    31.361724    9.796792    3.090993
C    19.974422    9.796692    3.090808
C    32.784401    9.797069    3.080451
C    15.700612    9.797364    3.081666
C     1.466628    9.797331    3.082440
C    14.277930    9.797367    3.089551
C     2.889380    9.797330    3.090821
C     5.734940    9.797499    3.088839
C    10.009805    9.797711    3.076258
C    11.432544    9.797551    3.088150
C     7.157699    9.797683    3.076919
C    24.953374   11.032203    3.082770
C    26.382473   11.032129    3.083680
C    29.224553   11.026561    3.077349
C    22.111468   11.026560    3.078201
C    16.411492   11.033019    3.083181
C    20.682050   11.026581    3.077564
C    33.495819   11.032962    3.082141
C    17.840475   11.032920    3.081894
C    30.654057   11.026722    3.078025
C     0.755678   11.033001    3.083858
C     3.597554   11.027375    3.080349
C    12.140476   11.027596    3.078549
C    13.569790   11.027404    3.078785
C     7.869066   11.033562    3.076040
C     5.026926   11.027517    3.079557
C     9.298403   11.033585    3.075659
C    27.090730   12.262150    3.096066
C    24.245200   12.262196    3.095800
C    22.822579   12.262566    3.082410
C    31.365274   12.262927    3.080229
C    19.970794   12.262874    3.078913
C    28.513360   12.262587    3.081185
C    14.280857   12.263292    3.080591
C    18.548212   12.262885    3.090701
C     1.463794   12.263083    3.093621
C    15.703433   12.263123    3.092149
C    32.787929   12.262911    3.091532
C     5.738219   12.263386    3.081706
C    10.006553   12.263445    3.088865
C     2.886432   12.263238    3.082561
C    11.429207   12.263446    3.081008
C     7.160894   12.263429    3.089329
C    29.224917   13.498710    3.082926
C    16.411119   13.493115    3.080292
C    20.682117   13.498698    3.080451
C    33.495904   13.492995    3.080136
C     3.597810   13.499052    3.082750
C    13.569478   13.499124    3.081076
C    17.840389   13.493014    3.079200
C    22.111221   13.498606    3.084002
C    30.654059   13.498729    3.080811
C     0.756045   13.493094    3.081711
C    12.140408   13.499130    3.082080
C     7.869035   13.493279    3.078803
C     5.026942   13.499069    3.083151
C     9.298381   13.493255    3.078374
C    10.009614   14.729001    3.080932
C    14.277526   14.729009    3.090588
C    18.551485   14.729064    3.079183
C    31.362063   14.728923    3.089778
C     1.467014   14.729095    3.083082
C     5.735093   14.728864    3.092527
C    11.432298   14.728934    3.091511
C    15.700146   14.729106    3.081397
C    19.974144   14.728860    3.089272
C    28.516938   14.728846    3.096659
C    32.784769   14.729096    3.080116
C     2.889699   14.728931    3.092251
C     7.157823   14.728968    3.081853
C    22.819167   14.728765    3.097258
C     7.869122   15.964490    3.082343
C    12.140327   15.958800    3.079564
C    16.411244   15.964913    3.082154
C    33.495952   15.965022    3.081855
C     3.597654   15.958833    3.079760
C     9.298274   15.964540    3.081911
C    13.569597   15.958905    3.078168
C    17.840297   15.964974    3.080946
C     0.755860   15.964909    3.083500
C     5.026986   15.958709    3.080584
C    20.682056   15.959030    3.076971
C    29.224808   15.959064    3.079904
C    30.654140   15.959145    3.077210
C    22.111373   15.959000    3.081146
C     7.160827   17.194221    3.092020
C     5.738143   17.194526    3.082609
C    10.006566   17.194294    3.091497
C    14.280916   17.194906    3.080042
C     1.463680   17.194861    3.093056
C    11.429225   17.194618    3.081928
C    15.703503   17.194878    3.091670
C    32.787833   17.195064    3.090383
C     2.886325   17.194841    3.081846
C    18.548284   17.194992    3.089530
C    31.365203   17.195200    3.078164
C    19.970869   17.195109    3.076956
C    22.822626   17.195241    3.081687
C     7.868879   18.424115    3.078370
C    12.140602   18.430330    3.082180
C     5.026731   18.430254    3.083116
C     9.298465   18.424123    3.077928
C     3.597524   18.430490    3.082952
C    16.411470   18.425028    3.080854
C    33.495591   18.425086    3.079369
C    13.569742   18.430574    3.081565
C     0.755650   18.425020    3.081535
C    20.682239   18.431182    3.077570
C    17.840644   18.425046    3.079002
C    30.653894   18.431243    3.077953
C    29.224655   18.431277    3.077272
C    22.111455   18.431097    3.078228
C    10.009772   19.660179    3.079902
C     7.157636   19.660159    3.080698
C     5.734842   19.660176    3.091688
C    11.432533   19.660266    3.090905
C     1.466477   19.660863    3.083152
C    14.278008   19.660550    3.091035
C     2.889208   19.660482    3.092190
C    15.700672   19.660869    3.082384
C    32.784290   19.661191    3.080028
C    18.551925   19.661105    3.079845
C    31.361638   19.661215    3.089748
C    19.974519   19.661086    3.089589
C    22.819470   19.661217    3.087262
C    27.093800   19.661514    3.076464
C    28.516456   19.661340    3.086939
C    24.242104   19.661433    3.074958
