528       
Geometry optimisation iteration:    20
Li   34.164034   19.620085    8.519198
Li   34.163308   14.684344    8.518796
Li   34.163278    9.748098    8.519377
Li   34.164266    4.820228    8.516992
Li   17.168079   19.618319    8.518937
Li   17.168879   14.684530    8.517053
Li   17.169437    9.749982    8.519278
Li   17.169073    4.820217    8.518265
Li    8.594992    4.828823    8.507405
Li    8.595562    9.734757    8.511565
Li    8.595480   14.684187    8.517987
Li    8.595357   19.624746    8.515552
Li   25.633242   19.604575    8.511397
Li   25.633347   14.692652    8.508000
Li   25.632695    9.754243    8.515697
Li   25.633138    4.819889    8.517905
C    22.115379    1.163467    3.411098
C    26.387436    1.163527    3.417573
C    30.658593    1.163468    3.410952
C     6.453284    1.163373    3.414795
C    10.724207    1.163415    3.414868
C     2.183645    1.163554    3.415381
C    14.994581    1.163496    3.414981
C    19.266489    1.163475    3.415221
C    23.538426    1.163498    3.414285
C    27.810335    1.163533    3.414433
C    32.081446    1.163476    3.414645
C     0.761016    1.163501    3.418534
C     5.030839    1.163450    3.411473
C     9.301510    1.163366    3.418047
C    13.571937    1.163495    3.411405
C    17.843434    1.163494    3.418362
C    15.707391    2.396472    3.416822
C    19.979504    2.396429    3.413044
C    24.251414    2.396461    3.416573
C     4.318490    2.396415    3.410912
C    28.523056    2.396480    3.412792
C     0.048137    2.396497    3.419211
C     8.588673    2.396305    3.418040
C    12.859507    2.396458    3.410634
C    17.130341    2.396476    3.419045
C    21.402536    2.396442    3.411008
C    25.674458    2.396473    3.418786
C    29.945839    2.396444    3.410801
C    32.794391    2.396473    3.416771
C     2.896150    2.396488    3.413161
C     7.165909    2.396330    3.415940
C    11.436945    2.396347    3.412281
C    13.572025    3.629422    3.410852
C    17.843406    3.629436    3.418106
C     2.183672    3.629447    3.415228
C    22.115414    3.629403    3.411299
C    26.387376    3.629446    3.418324
C     6.453248    3.629333    3.413480
C    10.724323    3.629341    3.413621
C    14.994642    3.629471    3.414678
C    19.266465    3.629387    3.414935
C    23.538479    3.629434    3.414822
C    27.810260    3.629414    3.415138
C    30.658530    3.629442    3.411141
C     0.761057    3.629503    3.418437
C     5.030774    3.629403    3.410566
C    32.081439    3.629461    3.414662
C     9.301553    3.629297    3.416510
C     0.048177    4.862461    3.418877
C    11.437021    4.862366    3.411451
C    15.707363    4.862430    3.416337
C    19.979472    4.862365    3.412776
C    24.251396    4.862387    3.416595
C     4.318478    4.862391    3.410063
C     8.588666    4.862335    3.416673
C    12.859606    4.862390    3.409842
C    17.130303    4.862379    3.418680
C    21.402557    4.862358    3.410720
C    25.674438    4.862410    3.419042
C    28.522987    4.862396    3.413063
C    29.945809    4.862400    3.410638
C    32.794435    4.862424    3.416266
C     2.896145    4.862427    3.412864
C     7.165851    4.862352    3.414479
C     9.301553    6.095392    3.416035
C    13.572025    6.095379    3.410449
C    17.843371    6.095346    3.417974
C    22.115448    6.095334    3.411227
C    32.081484    6.095386    3.414393
C     2.183727    6.095428    3.414996
C     6.453221    6.095383    3.412868
C    10.724365    6.095419    3.413157
C    14.994645    6.095385    3.414398
C    19.266474    6.095367    3.414744
C    23.538495    6.095356    3.414921
C    26.387336    6.095386    3.418522
C    27.810224    6.095393    3.415129
C    30.658525    6.095374    3.410860
C     0.761100    6.095430    3.418337
C     5.030734    6.095380    3.409959
C     7.165872    7.328442    3.414844
C    11.436999    7.328446    3.411430
C    15.707361    7.328365    3.416477
C    19.979519    7.328331    3.412774
C    29.945791    7.328365    3.410608
C     0.048255    7.328430    3.418991
C     4.318489    7.328393    3.410051
C     8.588655    7.328465    3.416932
C    12.859557    7.328384    3.409885
C    17.130299    7.328337    3.418776
C    21.402565    7.328308    3.410939
C    25.674450    7.328362    3.419318
C    24.251435    7.328331    3.417011
C    28.522974    7.328358    3.412877
C    32.794485    7.328393    3.416444
C     2.896197    7.328394    3.412633
C     5.030807    8.561406    3.410383
C     9.301527    8.561498    3.416573
C    13.571960    8.561397    3.410654
C    17.843365    8.561346    3.418064
C    27.810235    8.561329    3.415103
C    32.081515    8.561409    3.414470
C     2.183749    8.561362    3.415004
C     6.453239    8.561465    3.413471
C    10.724270    8.561436    3.413658
C    23.538471    8.561317    3.415050
C    14.994571    8.561349    3.414525
C    19.266462    8.561316    3.414998
C    22.115454    8.561323    3.411499
C    26.387350    8.561339    3.418459
C    30.658586    8.561365    3.410951
C     0.761149    8.561423    3.418291
C     7.165887    9.794412    3.415533
C    11.436897    9.794419    3.412207
C    15.707307    9.794299    3.416477
C    25.674397    9.794244    3.418926
C    29.945854    9.794323    3.410623
C     0.048229    9.794375    3.418873
C     4.318559    9.794374    3.410467
C    21.402602    9.794298    3.411138
C     8.588636    9.794444    3.417733
C    12.859473    9.794341    3.410313
C    17.130287    9.794320    3.418861
C    19.979528    9.794309    3.413239
C    24.251364    9.794261    3.416629
C    28.523005    9.794279    3.412900
C    32.794455    9.794382    3.416334
C     2.896216    9.794339    3.412930
C     5.030854   11.027284    3.411065
C     9.301507   11.027360    3.417704
C    13.571892   11.027276    3.411155
C    23.538440   11.027137    3.414677
C    27.810269   11.027205    3.414580
C    19.266513   11.027288    3.415287
C    32.081522   11.027315    3.414648
C     2.183742   11.027300    3.415089
C     6.453289   11.027320    3.414409
C    10.724226   11.027351    3.414569
C    14.994554   11.027232    3.414781
C    17.843411   11.027282    3.418366
C    22.115422   11.027225    3.411471
C    26.387355   11.027128    3.417832
C    30.658602   11.027264    3.411015
C     0.761114   11.027302    3.418352
C    32.794489   12.260294    3.416638
C     2.896242   12.260237    3.412901
C     7.165955   12.260261    3.416709
C    21.402506   12.260195    3.411040
C    11.436838   12.260284    3.412858
C    17.130341   12.260278    3.419077
C    25.674437   12.260090    3.417872
C    29.945938   12.260243    3.410323
C     0.048197   12.260273    3.419007
C     4.318550   12.260235    3.410936
C     8.588645   12.260295    3.418955
C    12.859368   12.260240    3.410936
C    15.707370   12.260229    3.416774
C    19.979504   12.260245    3.413212
C    24.251386   12.260101    3.415889
C    28.523137   12.260135    3.411979
C    30.658682   13.493225    3.410573
C     0.761051   13.493245    3.418156
C    19.266513   13.493224    3.415215
C     5.030884   13.493192    3.411316
C     9.301467   13.493269    3.418428
C    23.538403   13.493110    3.413563
C    27.810384   13.493100    3.413384
C    32.081549   13.493267    3.414451
C     2.183684   13.493206    3.414917
C     6.453318   13.493229    3.414954
C    10.724150   13.493219    3.415185
C    13.571865   13.493231    3.411324
C    17.843456   13.493261    3.418307
C    22.115336   13.493171    3.410724
C    14.994551   13.493230    3.414813
C    26.387429   13.493095    3.416366
C    17.130378   14.726214    3.418892
C    28.523191   14.726129    3.411278
C    32.794399   14.726215    3.416166
C     2.896159   14.726175    3.412782
C     7.165906   14.726177    3.416813
C    21.402511   14.726148    3.410280
C    25.674447   14.726102    3.416653
C    29.946043   14.726201    3.409637
C     0.048123   14.726209    3.418707
C     4.318575   14.726158    3.410736
C     8.588648   14.726206    3.419215
C    11.436772   14.726214    3.413152
C    12.859369   14.726177    3.410870
C    15.707358   14.726211    3.416509
C    19.979470   14.726191    3.412972
C    24.251296   14.726098    3.414541
C    26.387459   15.959146    3.415993
C    30.658711   15.959213    3.410269
C     0.760984   15.959181    3.418068
C     5.030883   15.959144    3.411279
C    14.994554   15.959181    3.414780
C    19.266523   15.959206    3.414989
C    23.538351   15.959130    3.412998
C    27.810453   15.959175    3.413003
C    32.081544   15.959174    3.414249
C     2.183627   15.959166    3.414786
C     6.453333   15.959148    3.415070
C     9.301468   15.959177    3.418579
C    10.724154   15.959218    3.415217
C    13.571856   15.959141    3.411240
C    17.843473   15.959178    3.418262
C    22.115284   15.959151    3.410196
C    24.251322   17.192182    3.414845
C    28.523220   17.192210    3.411236
C    32.794413   17.192169    3.416330
C     2.896167   17.192157    3.412818
C    12.859356   17.192160    3.410971
C    17.130390   17.192168    3.418952
C    21.402475   17.192175    3.410222
C    25.674465   17.192200    3.416901
C    29.946002   17.192205    3.409738
C     0.048095   17.192190    3.418796
C     4.318536   17.192179    3.410996
C     8.588648   17.192165    3.419404
C     7.165954   17.192161    3.417181
C    11.436808   17.192200    3.413077
C    15.707413   17.192182    3.416719
C    19.979495   17.192160    3.412721
C    22.115334   18.425186    3.410486
C    26.387433   18.425232    3.416466
C    30.658643   18.425211    3.410445
C     0.760973   18.425187    3.418174
C    10.724157   18.425138    3.415281
C    14.994595   18.425196    3.414820
C    19.266506   18.425121    3.415021
C    23.538391   18.425227    3.413438
C    27.810394   18.425183    3.413468
C     6.453340   18.425149    3.415268
C    32.081486   18.425172    3.414287
C     2.183644   18.425158    3.415099
C     5.030861   18.425183    3.411611
C     9.301446   18.425148    3.418583
C    13.571888   18.425181    3.411378
C    17.843454   18.425171    3.418191
C    24.251356   19.658185    3.415332
C    28.523120   19.658173    3.411999
C    32.794357   19.658146    3.416263
C     8.588640   19.658068    3.419151
C    12.859402   19.658160    3.411016
C    17.130348   19.658150    3.418946
C    21.402509   19.658131    3.410571
C     4.318533   19.658121    3.411208
C    25.674465   19.658195    3.417554
C    29.945920   19.658141    3.410093
C     0.048078   19.658138    3.418871
C     2.896153   19.658170    3.413291
C     7.165926   19.658079    3.416881
C    11.436827   19.658067    3.413194
C    15.707370   19.658156    3.416678
C    19.979476   19.658095    3.413058
C    10.005833    4.866049    6.605460
C     7.148314    4.865887    6.609884
C     7.861836    6.100613    6.612308
C     9.292466    6.101002    6.605910
C    27.088855   14.729789    6.610726
C    24.232871   14.729646    6.605309
C    24.946304   15.964482    6.610464
C    26.376391   15.964663    6.609073
C     7.861523    3.630423    6.605154
C     9.292562    3.630311    6.598678
C    11.428592    7.332096    6.622149
C    10.007221    7.329842    6.619679
C     7.146850    7.329598    6.624487
C     7.861009    8.559380    6.608190
C     9.293340    8.559276    6.601364
C    24.945910   13.494077    6.602897
C    26.376394   13.494225    6.601728
C    28.511524   17.195918    6.624730
C    27.090499   17.193688    6.623246
C    24.231829   17.193432    6.622598
C    24.945468   18.423128    6.606357
C    26.377248   18.423322    6.604978
C     7.861130    1.171769    6.614376
C     9.292693    1.172121    6.607690
C    12.137523    1.169301    6.626782
C     5.016823    1.168914    6.629097
C    33.486356    1.172710    6.615672
C     3.594224    1.168434    6.630977
C    16.405074    1.171276    6.621126
C     0.748862    1.171414    6.616324
C    13.560147    1.168779    6.630821
C    17.836547    1.172611    6.611327
C    20.679811    1.170790    6.627328
C    29.221163    1.170269    6.627416
C    30.642930    1.171280    6.627582
C    24.945470    1.170172    6.611174
C    22.101532    1.169837    6.626907
C    26.377166    1.170401    6.609266
C    10.006971    2.401783    6.617187
C     7.146724    2.401643    6.622129
C     5.726008    2.401715    6.627122
C    14.269000    2.401826    6.632207
C     2.885501    2.401592    6.627909
C    11.428437    2.402031    6.620571
C    31.350973    2.403730    6.628876
C     1.463308    2.401386    6.628601
C    18.551398    2.402060    6.623704
C    32.770958    2.402412    6.625931
C    15.690420    2.401430    6.631740
C    22.809236    2.402333    6.628600
C    27.092069    2.400614    6.623996
C    19.971963    2.403218    6.624763
C    28.513550    2.402792    6.625722
C    24.229988    2.400298    6.624271
C    12.137062    3.634439    6.624379
C    33.485232    3.631217    6.609679
C     3.594797    3.634216    6.628588
C    16.405976    3.630821    6.616047
C    20.679758    3.634943    6.628255
C    30.642860    3.635529    6.628596
C     0.747982    3.630686    6.610299
C     5.017373    3.634154    6.626502
C    13.559656    3.634486    6.628678
C    17.837666    3.630723    6.606082
C    29.221906    3.635111    6.629799
C    24.944851    3.629760    6.610387
C    22.100605    3.634535    6.629443
C    26.377424    3.629949    6.608505
C    27.091100    4.866394    6.617988
C    31.346808    4.867732    6.627177
C     1.461741    4.866846    6.618475
C    14.265473    4.867459    6.631094
C    18.551008    4.866756    6.609904
C    22.804605    4.866889    6.629825
C    28.517703    4.867337    6.628299
C    32.771422    4.867152    6.609519
C     2.889272    4.867207    6.627259
C    11.432074    4.867024    6.619471
C    15.692123    4.866916    6.619807
C    19.976235    4.867167    6.623638
C    24.230220    4.866163    6.613239
C     5.722858    4.866710    6.626152
C    24.944936    6.101692    6.617625
C    29.221916    6.099851    6.630648
C    33.485811    6.102067    6.614479
C    16.406098    6.102218    6.620229
C    20.679403    6.099518    6.628458
C    26.376971    6.101853    6.615552
C    30.643037    6.100002    6.628713
C     0.747908    6.102393    6.614711
C    17.837125    6.102000    6.610777
C    22.100352    6.099458    6.630285
C     3.594858    6.100171    6.628717
C    12.137056    6.099978    6.625721
C    13.559715    6.100503    6.628570
C     5.017544    6.099582    6.627965
C    24.229547    7.331124    6.628251
C    22.808784    7.331277    6.631047
C    27.091949    7.331366    6.627905
C    31.351317    7.331538    6.628847
C    18.550912    7.330856    6.622967
C    28.513519    7.331696    6.628166
C    32.771390    7.331064    6.625120
C    15.690156    7.331842    6.630320
C    19.971475    7.331138    6.624776
C     1.463644    7.331733    6.627274
C    14.268794    7.333156    6.630681
C     2.885792    7.332810    6.626554
C     5.726187    7.331696    6.628802
C    24.944712    8.561046    6.611689
C    29.221299    8.564588    6.629980
C    22.100977    8.564153    6.629570
C    26.377215    8.561229    6.609837
C    20.679334    8.563702    6.628508
C    33.486565    8.560639    6.609634
C    16.404236    8.562127    6.615161
C    30.643136    8.564084    6.628869
C    17.836325    8.560380    6.605365
C     3.594672    8.566023    6.628627
C     0.749713    8.561819    6.610228
C    13.559919    8.566483    6.628299
C    12.137493    8.565444    6.625078
C     5.017156    8.565024    6.627529
C    27.089711    9.798958    6.616131
C    24.231523    9.798803    6.611202
C    22.805601    9.798274    6.627772
C    28.516628    9.798605    6.626578
C    18.549040    9.798154    6.610177
C    31.347116    9.798209    6.627734
C    19.975873    9.797943    6.624048
C    32.773351    9.798273    6.610508
C    15.690487    9.799747    6.620359
C     1.463314    9.799442    6.619874
C    14.264406    9.800853    6.632195
C     2.890302    9.800368    6.628707
C     5.721108    9.799157    6.627605
C    10.006823    9.797348    6.607017
C    11.433908    9.799584    6.620452
C     7.147413    9.797149    6.611793
C    24.945531   11.035509    6.612527
C    26.376518   11.035657    6.610773
C    29.220057   11.032978    6.627782
C    22.102280   11.032697    6.627076
C    16.403018   11.036276    6.621556
C    20.679839   11.032275    6.627528
C    33.488381   11.035066    6.616265
C    17.834474   11.035305    6.611645
C    30.642664   11.032558    6.627762
C     0.750845   11.036163    6.616953
C     3.594173   11.034448    6.631087
C    12.138364   11.034079    6.626379
C    13.560246   11.034971    6.630738
C     7.861015   11.033882    6.614019
C     5.016103   11.033535    6.629176
C     9.293159   11.034213    6.607226
C    27.090146   12.265499    6.620433
C    24.231650   12.265337    6.619955
C    22.811287   12.265412    6.625126
C    31.351837   12.265510    6.627392
C    19.971025   12.265314    6.623314
C    28.511254   12.265734    6.622932
C    14.268061   12.267512    6.633796
C    18.548893   12.265101    6.623185
C     1.465673   12.265851    6.629800
C    15.687930   12.266235    6.632305
C    32.773401   12.265045    6.625920
C     5.724013   12.266090    6.630784
C    10.008636   12.264289    6.621338
C     2.886269   12.266945    6.629780
C    11.430405   12.266541    6.623429
C     7.145101   12.264090    6.627000
C    29.219716   13.498161    6.625309
C    16.401864   13.495313    6.615502
C    20.680391   13.497839    6.625103
C    33.489279   13.494259    6.610378
C     3.594084   13.498774    6.631970
C    13.560153   13.499387    6.631653
C    17.833593   13.494246    6.604863
C    22.102852   13.497800    6.624464
C    30.642258   13.498105    6.625461
C     0.751973   13.494818    6.611825
C    12.139110   13.498838    6.628710
C     7.860434   13.493697    6.613060
C     5.015116   13.498335    6.631500
C     9.293503   13.493537    6.605895
C    10.008021   14.730211    6.613066
C    14.264327   14.731557    6.633484
C    18.547945   14.730719    6.608107
C    31.347856   14.731154    6.624707
C     1.464683   14.730597    6.620509
C     5.719629   14.730632    6.632966
C    11.434898   14.731118    6.625442
C    15.688971   14.731027    6.619853
C    19.975339   14.730995    6.620837
C    28.514850   14.730758    6.622407
C    32.774559   14.730677    6.609342
C     2.890140   14.730950    6.630312
C     7.145736   14.729952    6.618239
C    22.807837   14.730432    6.623257
C     7.860572   15.965436    6.620371
C    12.139175   15.963694    6.629707
C    16.402431   15.965815    6.619897
C    33.489421   15.966247    6.615164
C     3.593764   15.963192    6.632153
C     9.293109   15.965853    6.613326
C    13.560363   15.963798    6.631766
C    17.833496   15.966523    6.609771
C     0.751442   15.965657    6.616252
C     5.014912   15.963125    6.632547
C    20.680497   15.964096    6.625188
C    29.219756   15.963766    6.626807
C    30.642325   15.964312    6.625467
C    22.103032   15.963434    6.626001
C     7.144707   17.194982    6.631450
C     5.723590   17.195065    6.633525
C    10.008639   17.195248    6.625569
C    14.268439   17.195468    6.633719
C     1.465244   17.194752    6.629166
C    11.430500   17.195538    6.626038
C    15.688376   17.195057    6.631517
C    32.773157   17.195674    6.624683
C     2.885845   17.194964    6.629754
C    18.549244   17.195650    6.621884
C    31.351684   17.196898    6.625887
C    19.971362   17.196645    6.621877
C    22.811487   17.195492    6.626934
C     7.860297   18.425065    6.615135
C    12.138604   18.428433    6.629064
C     5.015547   18.428010    6.631945
C     9.293321   18.424963    6.608009
C     3.593671   18.427611    6.632379
C    16.403245   18.424889    6.616170
C    33.487577   18.425712    6.610146
C    13.560525   18.428100    6.632020
C     0.750681   18.424527    6.611698
C    20.680296   18.429766    6.625022
C    17.835338   18.425501    6.605382
C    30.642600   18.430176    6.625266
C    29.220209   18.429278    6.626252
C    22.102638   18.428781    6.625490
C    10.006733   19.662829    6.611432
C     7.146985   19.662670    6.616258
C     5.720621   19.662095    6.631013
C    11.433948   19.662510    6.623855
C     1.462773   19.662028    6.620786
C    14.264784   19.662126    6.634157
C     2.889794   19.661752    6.630679
C    15.690945   19.662236    6.621074
C    32.772926   19.663541    6.609937
C    18.549607   19.663307    6.609578
C    31.346847   19.664679    6.625778
C    19.976398   19.664217    6.622141
C    22.806050   19.662991    6.624490
C    27.089962   19.661205    6.612069
C    28.516749   19.663416    6.623417
C    24.231939   19.660967    6.606983
