544       
Geometry optimisation iteration:     7
Li    0.031018   19.672007    8.575408
Li    0.031224   14.738894    8.575943
Li    0.030791    9.805973    8.575377
Li    0.030654    4.875320    8.574699
Li    4.309563   17.203687    8.575598
Li    4.309575   12.274176    8.576579
Li    4.310778    7.341243    8.573489
Li    4.309879    2.409492    8.575474
Li    8.590159    4.877732    8.564652
Li    8.590172    9.804262    8.571860
Li    8.590193   14.739112    8.575561
Li    8.590183   19.671848    8.576417
Li   12.868593   17.203541    8.574168
Li   12.868540   12.274242    8.574943
Li   12.866884    7.341400    8.572703
Li   12.867951    2.409362    8.574686
Li   17.140404   19.671677    8.575080
Li   17.140232   14.738899    8.574435
Li   17.140715    9.806287    8.574996
Li   17.140976    4.875340    8.575590
Li   21.405656   17.203363    8.572451
Li   21.404204   12.274368    8.574812
Li   21.403958    7.341544    8.574937
Li   21.403887    2.409273    8.575657
Li   25.663395   19.669956    8.571051
Li   25.663419   14.741167    8.563879
Li   25.663374    9.806120    8.575556
Li   25.663387    4.875549    8.574719
Li   29.925572   17.203503    8.572105
Li   29.926799   12.274221    8.574389
Li   29.927491    7.341409    8.573967
Li   29.927457    2.409335    8.574507
C    22.108728    1.163438    3.338309
C    26.380149    1.163446    3.338634
C    30.651421    1.163434    3.338888
C     6.446678    1.163388    3.338434
C    10.717661    1.163417    3.338617
C     2.175759    1.163460    3.338319
C    14.988682    1.163400    3.338308
C    19.259974    1.163461    3.338040
C    23.531364    1.163423    3.338191
C    27.802753    1.163472    3.338601
C    32.073961    1.163438    3.338635
C     0.753268    1.163437    3.338542
C     5.024206    1.163423    3.338574
C     9.295167    1.163410    3.338741
C    13.566146    1.163429    3.338715
C    17.837366    1.163444    3.338230
C    15.701733    2.396409    3.338281
C    19.973038    2.396416    3.338036
C    24.244437    2.396409    3.338397
C     4.311231    2.396387    3.338631
C    28.515794    2.396421    3.338918
C     0.040294    2.396413    3.338555
C     8.582197    2.396377    3.338242
C    12.853186    2.396401    3.338576
C    17.124351    2.396429    3.337891
C    21.395681    2.396414    3.338035
C    25.667098    2.396400    3.338399
C    29.938397    2.396418    3.338876
C    32.786960    2.396424    3.338834
C     2.888723    2.396407    3.338742
C     7.159658    2.396376    3.338475
C    11.430657    2.396377    3.338643
C    13.566163    3.629374    3.338445
C    17.837370    3.629400    3.337924
C     2.175750    3.629369    3.338679
C    22.108716    3.629373    3.338005
C    26.380141    3.629369    3.338659
C     6.446668    3.629378    3.338143
C    10.717670    3.629371    3.338040
C    14.988705    3.629407    3.338139
C    19.259974    3.629368    3.337688
C    23.531365    3.629391    3.338012
C    27.802755    3.629370    3.338617
C    30.651426    3.629392    3.338925
C     0.753258    3.629414    3.338878
C     5.024182    3.629363    3.338610
C    32.073976    3.629413    3.338724
C     9.295158    3.629370    3.338075
C     0.040282    4.862380    3.338837
C    11.430669    4.862379    3.338026
C    15.701733    4.862375    3.338175
C    19.973039    4.862351    3.337745
C    24.244433    4.862346    3.338203
C     4.311227    4.862355    3.338433
C     8.582174    4.862369    3.337626
C    12.853199    4.862361    3.338047
C    17.124316    4.862357    3.337878
C    21.395679    4.862350    3.337603
C    25.667079    4.862342    3.338359
C    28.515831    4.862358    3.338727
C    29.938422    4.862377    3.338602
C    32.786981    4.862363    3.338883
C     2.888737    4.862365    3.338855
C     7.159666    4.862360    3.337886
C     9.295154    6.095359    3.337533
C    13.566168    6.095342    3.338292
C    17.837387    6.095314    3.337902
C    22.108728    6.095335    3.337876
C    32.073971    6.095314    3.338617
C     2.175766    6.095356    3.338685
C     6.446680    6.095338    3.337733
C    10.717674    6.095381    3.337591
C    14.988719    6.095337    3.338074
C    19.260011    6.095349    3.337610
C    23.531357    6.095319    3.337877
C    26.380108    6.095334    3.338503
C    27.802744    6.095348    3.338458
C    30.651413    6.095359    3.338763
C     0.753269    6.095337    3.338883
C     5.024181    6.095348    3.338358
C     7.159668    7.328342    3.337756
C    11.430653    7.328333    3.338054
C    15.701749    7.328307    3.338228
C    19.973058    7.328294    3.337896
C    29.938387    7.328311    3.338606
C     0.040311    7.328297    3.338518
C     4.311232    7.328326    3.338410
C     8.582189    7.328339    3.337397
C    12.853181    7.328313    3.338242
C    17.124365    7.328279    3.337837
C    21.395685    7.328290    3.337871
C    25.667081    7.328299    3.338268
C    24.244428    7.328286    3.338265
C    28.515788    7.328290    3.338679
C    32.786976    7.328290    3.338693
C     2.888746    7.328306    3.338719
C     5.024215    8.561298    3.338350
C     9.295146    8.561323    3.337958
C    13.566141    8.561295    3.338531
C    17.837364    8.561280    3.338139
C    27.802753    8.561252    3.338560
C    32.073975    8.561289    3.338419
C     2.175782    8.561269    3.338396
C     6.446674    8.561337    3.337929
C    10.717648    8.561299    3.337994
C    23.531347    8.561290    3.338228
C    14.988690    8.561300    3.338254
C    19.259988    8.561260    3.337892
C    22.108740    8.561278    3.338241
C    26.380136    8.561274    3.338710
C    30.651425    8.561267    3.338644
C     0.753280    8.561278    3.338579
C     7.159669    9.794276    3.338236
C    11.430642    9.794284    3.338604
C    15.701729    9.794254    3.338522
C    25.667063    9.794240    3.338679
C    29.938405    9.794228    3.338442
C     0.040292    9.794253    3.338296
C     4.311269    9.794266    3.338133
C    21.395700    9.794270    3.338196
C     8.582157    9.794282    3.338187
C    12.853182    9.794279    3.338510
C    17.124341    9.794271    3.338293
C    19.973064    9.794259    3.338299
C    24.244426    9.794255    3.338661
C    28.515796    9.794233    3.338746
C    32.786961    9.794252    3.338467
C     2.888772    9.794257    3.338341
C     5.024213   11.027233    3.338259
C     9.295133   11.027234    3.338585
C    13.566142   11.027246    3.338881
C    23.531361   11.027181    3.338512
C    27.802751   11.027222    3.338541
C    19.259996   11.027243    3.338381
C    32.073978   11.027208    3.338232
C     2.175789   11.027250    3.337937
C     6.446693   11.027217    3.338150
C    10.717637   11.027252    3.338572
C    14.988700   11.027204    3.338561
C    17.837374   11.027246    3.338551
C    22.108727   11.027220    3.338668
C    26.380121   11.027189    3.338733
C    30.651413   11.027196    3.338581
C     0.753276   11.027224    3.338148
C    32.786993   12.260204    3.338231
C     2.888759   12.260203    3.337954
C     7.159681   12.260194    3.338362
C    21.395648   12.260201    3.338721
C    11.430632   12.260194    3.338939
C    17.124318   12.260217    3.338518
C    25.667097   12.260175    3.338287
C    29.938421   12.260185    3.338447
C     0.040313   12.260205    3.337843
C     4.311239   12.260199    3.337985
C     8.582176   12.260197    3.338362
C    12.853143   12.260210    3.338892
C    15.701725   12.260200    3.338785
C    19.973021   12.260210    3.338832
C    24.244443   12.260188    3.338551
C    28.515834   12.260178    3.338508
C    30.651443   13.493177    3.338387
C     0.753271   13.493184    3.337906
C    19.259961   13.493179    3.338768
C     5.024203   13.493175    3.337980
C     9.295155   13.493179    3.338649
C    23.531350   13.493191    3.338249
C    27.802767   13.493144    3.337979
C    32.073995   13.493196    3.338108
C     2.175771   13.493168    3.337618
C     6.446683   13.493192    3.337996
C    10.717658   13.493155    3.338659
C    13.566138   13.493175    3.338971
C    17.837356   13.493189    3.338903
C    22.108697   13.493180    3.338714
C    14.988691   13.493202    3.338745
C    26.380138   13.493178    3.338087
C    17.124326   14.726148    3.338891
C    28.515826   14.726147    3.337984
C    32.786972   14.726149    3.338202
C     2.888741   14.726149    3.337688
C     7.159666   14.726141    3.338190
C    21.395669   14.726150    3.338536
C    25.667073   14.726161    3.337666
C    29.938450   14.726158    3.338020
C     0.040292   14.726172    3.337901
C     4.311256   14.726148    3.337569
C     8.582190   14.726152    3.338346
C    11.430660   14.726164    3.338819
C    12.853190   14.726146    3.338717
C    15.701723   14.726150    3.338956
C    19.973022   14.726160    3.338956
C    24.244410   14.726150    3.337965
C    26.380150   15.959157    3.337556
C    30.651458   15.959153    3.338306
C     0.753278   15.959129    3.337868
C     5.024213   15.959116    3.337845
C    14.988680   15.959112    3.338722
C    19.259957   15.959159    3.338776
C    23.531345   15.959132    3.337812
C    27.802777   15.959159    3.337592
C    32.073987   15.959101    3.338132
C     2.175762   15.959123    3.337542
C     6.446688   15.959096    3.337850
C     9.295173   15.959112    3.338489
C    10.717658   15.959149    3.338500
C    13.566148   15.959119    3.338895
C    17.837359   15.959115    3.338964
C    22.108701   15.959148    3.338456
C    24.244430   17.192132    3.337783
C    28.515831   17.192129    3.338052
C    32.786982   17.192087    3.338294
C     2.888753   17.192075    3.337813
C    12.853159   17.192083    3.338757
C    17.124329   17.192092    3.338593
C    21.395656   17.192124    3.338483
C    25.667100   17.192145    3.337421
C    29.938421   17.192116    3.338236
C     0.040306   17.192105    3.337826
C     4.311244   17.192092    3.337802
C     8.582200   17.192086    3.338229
C     7.159684   17.192088    3.338224
C    11.430649   17.192106    3.338755
C    15.701731   17.192094    3.338761
C    19.973022   17.192111    3.338798
C    22.108717   18.425094    3.338373
C    26.380133   18.425120    3.337980
C    30.651406   18.425089    3.338565
C     0.753262   18.425078    3.338088
C    10.717667   18.425047    3.338599
C    14.988699   18.425086    3.338507
C    19.259985   18.425069    3.338465
C    23.531352   18.425129    3.337937
C    27.802772   18.425091    3.337996
C     6.446699   18.425082    3.338165
C    32.073965   18.425099    3.338350
C     2.175794   18.425054    3.337815
C     5.024197   18.425069    3.338168
C     9.295140   18.425072    3.338685
C    13.566147   18.425070    3.338808
C    17.837355   18.425073    3.338644
C    24.244437   19.658075    3.338254
C    28.515819   19.658082    3.338599
C    32.786963   19.658073    3.338608
C     8.582169   19.658046    3.338672
C    12.853176   19.658047    3.338619
C    17.124312   19.658059    3.338365
C    21.395684   19.658065    3.338186
C     4.311263   19.658052    3.338119
C    25.667087   19.658084    3.338224
C    29.938413   19.658064    3.338492
C     0.040280   19.658053    3.338309
C     2.888764   19.658065    3.338228
C     7.159667   19.658039    3.338620
C    11.430662   19.658011    3.338858
C    15.701718   19.658047    3.338516
C    19.973041   19.658056    3.338415
C    10.010007    4.864191    6.689859
C     7.156595    4.864187    6.689944
C     7.868276    6.100825    6.687927
C     9.298294    6.100926    6.686166
C    27.094458   14.727948    6.690334
C    24.241087   14.727979    6.689254
C    24.952894   15.964639    6.687650
C    26.382832   15.964647    6.686484
C     7.868390    3.627665    6.692542
C     9.298274    3.627551    6.690855
C    11.428998    7.330518    6.693416
C    10.006448    7.330851    6.695552
C     7.160139    7.330886    6.696557
C     7.868521    8.560751    6.693395
C     9.298060    8.560630    6.691680
C    24.952979   13.491454    6.692268
C    26.382771   13.491383    6.691105
C    28.513274   17.194331    6.692097
C    27.090843   17.194657    6.695370
C    24.244824   17.194683    6.696220
C    24.953104   18.424531    6.693103
C    26.382608   18.424489    6.691940
C     7.868470    1.167628    6.698575
C     9.298141    1.167713    6.696892
C    12.140183    1.161813    6.700100
C     5.026436    1.161660    6.699640
C    33.495256    1.168663    6.698472
C     3.597359    1.162054    6.700562
C    16.410839    1.168576    6.699418
C     0.755719    1.168620    6.698065
C    13.569228    1.161984    6.698603
C    17.840512    1.168741    6.697854
C    20.682228    1.162286    6.701049
C    29.224350    1.162098    6.699050
C    30.653533    1.162258    6.698870
C    24.953106    1.168496    6.697714
C    22.111381    1.162055    6.699401
C    26.382589    1.168522    6.696534
C    10.006445    2.397516    6.701143
C     7.160195    2.397542    6.702027
C     5.737565    2.397691    6.698785
C    14.280767    2.398147    6.699441
C     2.885813    2.398116    6.699182
C    11.429020    2.397707    6.697422
C    31.364865    2.398513    6.699934
C     1.463628    2.398390    6.704857
C    18.548553    2.398540    6.705027
C    32.787186    2.398545    6.704421
C    15.702968    2.398451    6.705430
C    22.822749    2.398170    6.700473
C    27.090522    2.398104    6.704371
C    19.970783    2.398490    6.699932
C    28.512840    2.398189    6.697951
C    24.245109    2.398114    6.705383
C    12.140535    3.633986    6.696354
C    33.495212    3.628323    6.698927
C     3.596874    3.634288    6.698625
C    16.411140    3.628264    6.700847
C    20.681920    3.634591    6.699808
C    30.653850    3.634675    6.697359
C     0.755469    3.628158    6.698842
C     5.026117    3.634100    6.695746
C    13.569771    3.634415    6.696945
C    17.840577    3.628218    6.698948
C    29.224584    3.634459    6.698132
C    24.953156    3.627896    6.700187
C    22.111154    3.634469    6.698543
C    26.382591    3.627878    6.699013
C    27.094160    4.864144    6.699630
C    31.361564    4.864209    6.703346
C     1.466967    4.864134    6.700357
C    14.277423    4.864198    6.704361
C    18.552229    4.864139    6.699420
C    22.819052    4.864147    6.704760
C    28.516600    4.864182    6.704046
C    32.783507    4.864165    6.697239
C     2.889195    4.864186    6.704710
C    11.432679    4.864163    6.698651
C    15.699562    4.864113    6.700200
C    19.974222    4.864192    6.705101
C    24.241399    4.864130    6.698702
C     5.733978    4.864179    6.699154
C    24.953064    6.100510    6.698830
C    29.224642    6.093923    6.698440
C    33.495145    6.100128    6.697833
C    16.411065    6.100097    6.699949
C    20.682014    6.093774    6.700034
C    26.382648    6.100552    6.697698
C    30.653800    6.093742    6.697697
C     0.755542    6.100229    6.697892
C    17.840649    6.100181    6.697820
C    22.111104    6.093855    6.698737
C     3.596971    6.094069    6.698536
C    12.140537    6.094335    6.695268
C    13.569631    6.093962    6.696938
C     5.026074    6.094248    6.694711
C    24.245184    7.330282    6.705344
C    22.822809    7.330035    6.699889
C    27.090472    7.330302    6.704421
C    31.364940    7.329765    6.699183
C    18.548509    7.329861    6.704457
C    28.512793    7.330076    6.697550
C    32.787263    7.329898    6.703935
C    15.703014    7.329954    6.705413
C    19.970730    7.329730    6.699012
C     1.463598    7.330005    6.704781
C    14.280771    7.330087    6.698666
C     2.885803    7.330106    6.698357
C     5.737561    7.330559    6.694907
C    24.953240    8.559895    6.700757
C    29.224237    8.566362    6.698435
C    22.111509    8.566366    6.698577
C    26.382488    8.559874    6.699597
C    20.682149    8.566094    6.699513
C    33.495358    8.559773    6.699063
C    16.410945    8.559855    6.700380
C    30.653647    8.566171    6.697523
C    17.840440    8.559676    6.698439
C     3.597330    8.566334    6.698590
C     0.755639    8.559792    6.699049
C    13.569275    8.566402    6.696525
C    12.140060    8.566592    6.696326
C     5.026553    8.566753    6.695965
C    27.094103    9.795562    6.700580
C    24.241440    9.795550    6.699673
C    22.819288    9.795967    6.705732
C    28.516350    9.796001    6.705159
C    18.552111    9.796028    6.699151
C    31.361408    9.796125    6.704474
C    19.974401    9.796114    6.705395
C    32.783666    9.796041    6.698047
C    15.699357    9.796008    6.699524
C     1.467126    9.796010    6.700862
C    14.277021    9.796095    6.704537
C     2.889548    9.796132    6.705789
C     5.734659    9.796312    6.703560
C    10.009664    9.796460    6.696162
C    11.431973    9.796272    6.702799
C     7.156904    9.796481    6.696391
C    24.953054   11.031407    6.698339
C    26.382666   11.031424    6.697186
C    29.224617   11.025540    6.699516
C    22.111116   11.025441    6.699488
C    16.410848   11.032331    6.699093
C    20.682118   11.025915    6.700846
C    33.495255   11.032411    6.698946
C    17.840535   11.032456    6.697484
C    30.653688   11.025897    6.699229
C     0.755737   11.032433    6.698576
C     3.597506   11.026090    6.700924
C    12.139866   11.025977    6.699726
C    13.569078   11.025942    6.698350
C     7.868517   11.032283    6.698137
C     5.026740   11.025920    6.699733
C     9.298058   11.032376    6.696383
C    27.090815   12.261292    6.700933
C    24.244866   12.261318    6.701766
C    22.822340   12.261489    6.698209
C    31.365072   12.261958    6.700660
C    19.970595   12.261933    6.699534
C    28.513270   12.261497    6.696073
C    14.280582   12.262263    6.698720
C    18.548453   12.262161    6.704679
C     1.463720   12.262318    6.705246
C    15.702875   12.262298    6.704384
C    32.787288   12.262202    6.705504
C     5.738012   12.262012    6.701084
C    10.006150   12.261892    6.704564
C     2.885981   12.262306    6.699619
C    11.428558   12.261976    6.699276
C     7.160460   12.261930    6.705678
C    29.224980   13.497887    6.695649
C    16.410809   13.492157    6.699440
C    20.681585   13.498063    6.698820
C    33.495545   13.491954    6.700310
C     3.597187   13.498462    6.699541
C    13.569406   13.498547    6.696682
C    17.840254   13.491866    6.698244
C    22.110778   13.497934    6.695448
C    30.654211   13.498122    6.697493
C     0.755776   13.492098    6.699557
C    12.140109   13.498178    6.698684
C     7.868569   13.491741    6.700466
C     5.026496   13.498301    6.698738
C     9.298064   13.491621    6.698768
C    10.009680   14.727950    6.699228
C    14.277215   14.727997    6.703346
C    18.551920   14.727900    6.699064
C    31.361760   14.727963    6.704316
C     1.467230   14.727937    6.700739
C     5.734462   14.727960    6.705045
C    11.432160   14.727959    6.704215
C    15.699234   14.727905    6.698375
C    19.974058   14.727979    6.704490
C    28.517093   14.727961    6.698504
C    32.783840   14.727905    6.699030
C     2.889327   14.727982    6.705324
C     7.156922   14.727928    6.699422
C    22.818567   14.727966    6.698819
C     7.868492   15.964272    6.699194
C    12.140180   15.957753    6.698993
C    16.410728   15.963780    6.698433
C    33.495464   15.963984    6.699371
C     3.597241   15.957499    6.699801
C     9.298125   15.964412    6.697518
C    13.569327   15.957438    6.697063
C    17.840294   15.964070    6.697278
C     0.755804   15.963879    6.698485
C     5.026413   15.957646    6.698964
C    20.681694   15.957900    6.698660
C    29.225016   15.958052    6.694632
C    30.654091   15.957811    6.697429
C    22.110741   15.958020    6.694315
C     7.160506   17.194099    6.705708
C     5.738026   17.193832    6.700569
C    10.006097   17.194153    6.704709
C    14.280646   17.193557    6.697992
C     1.463628   17.193659    6.704740
C    11.428522   17.193858    6.698944
C    15.702927   17.193661    6.703927
C    32.787322   17.193777    6.705471
C     2.885899   17.193529    6.698726
C    18.548388   17.193780    6.704598
C    31.365074   17.193868    6.699868
C    19.970561   17.193892    6.698682
C    22.822322   17.194356    6.694160
C     7.868606   18.423758    6.701148
C    12.139769   18.430050    6.699192
C     5.026854   18.430130    6.698928
C     9.297937   18.423660    6.699515
C     3.597385   18.429917    6.699389
C    16.410915   18.423655    6.699702
C    33.495347   18.423594    6.699959
C    13.569199   18.430035    6.696988
C     0.755641   18.423567    6.699196
C    20.682054   18.430045    6.698844
C    17.840394   18.423520    6.698502
C    30.653721   18.430103    6.697238
C    29.224510   18.430464    6.695723
C    22.111239   18.430549    6.695669
C    10.009646   19.659363    6.700250
C     7.156952   19.659390    6.700377
C     5.734700   19.659752    6.706025
C    11.431942   19.659781    6.705425
C     1.467096   19.659838    6.700520
C    14.277061   19.659895    6.704462
C     2.889486   19.659870    6.705615
C    15.699366   19.659862    6.699194
C    32.783628   19.659816    6.698420
C    18.552099   19.659808    6.699557
C    31.361354   19.659902    6.704566
C    19.974412   19.659877    6.705572
C    22.819228   19.660085    6.703206
C    27.094160   19.660247    6.696534
C    28.516408   19.660066    6.702579
C    24.241388   19.660266    6.695610
