536       
Geometry optimisation iteration:    30
Li   10.812163    3.600939    8.515284
Li    2.129637    3.594141    8.565648
Li    6.476359    6.664956    8.649081
Li    8.076645    4.399677    8.729232
Li    8.578672    9.739018    8.550274
Li    4.339806    9.760568    8.578155
Li    5.035170    4.162732    8.882358
Li    6.502912    1.230350    8.599773
Li    9.999411    6.750265    8.848403
Li    3.358377    6.776328    8.884584
Li    4.315293    2.109653   11.088584
Li    8.839897    2.788548   10.988793
Li    8.138767    5.859417   10.962562
Li    5.161719    5.960493   10.928678
Li    6.442957    3.765759   11.302774
Li    6.462392    8.306281   10.829196
Li    2.869449    4.841981   11.485719
Li   10.872302    5.126713   11.420795
Li    3.394797    8.202999   11.946619
Li    9.550020    8.361964   11.910186
Li    6.905334    1.053472   12.917594
Li    8.343550    4.121620   13.619432
Li    5.021887    3.841569   13.667238
Li    6.406268    6.701612   13.428332
C     9.293893    3.625700    3.426454
C    10.716694    3.625769    3.416545
C     8.580930    4.858989    3.430915
C     7.158117    4.859027    3.439041
C    11.429547    4.859002    3.411428
C     9.293971    6.092254    3.426723
C    10.716818    6.092301    3.417519
C     8.580930    7.325561    3.430731
C     7.158204    7.325553    3.436319
C    26.378298   13.489951    3.352149
C    27.801176   13.489911    3.355483
C    25.665333   14.722929    3.346704
C    24.242435   14.722951    3.350661
C    28.514171   14.722910    3.353978
C    26.378326   15.955955    3.347244
C    27.801188   15.955907    3.350181
C    25.665348   17.188937    3.351494
C    24.242442   17.188909    3.355563
C     8.580957    2.392468    3.431065
C     7.158183    2.392390    3.438252
C    11.429378    2.392459    3.414030
C     6.445092    3.625673    3.443025
C    13.564817    3.625819    3.402378
C    12.852294    4.859116    3.402942
C     6.445088    6.092304    3.442140
C    13.564823    6.092346    3.400885
C    11.429555    7.325502    3.415616
C    12.852248    7.325452    3.406941
C     9.293905    8.558761    3.429826
C    10.716746    8.558631    3.423557
C     6.445178    8.558723    3.440294
C    25.665361   12.256916    3.360679
C    24.242470   12.257007    3.363248
C    28.514107   12.256971    3.369120
C    23.529569   13.489967    3.357717
C    30.649912   13.489994    3.373884
C    29.936991   14.722956    3.362414
C    23.529527   15.955966    3.354350
C    30.649984   15.955958    3.367252
C    28.514119   17.188901    3.358446
C    29.936899   17.188895    3.366197
C    26.378265   18.421898    3.361299
C    27.801099   18.421888    3.364369
C    23.529538   18.421897    3.367181
C     6.445229    1.159320    3.438548
C     9.293886    1.159365    3.427752
C    10.716642    1.159442    3.420365
C     4.309476    2.392361    3.446361
C    12.852209    2.392733    3.407969
C     5.022484    3.625636    3.448965
C    14.987552    3.625990    3.401031
C     4.309337    4.858977    3.454209
C    15.699988    4.859103    3.399663
C     5.022393    6.092299    3.450683
C    14.987502    6.092285    3.398356
C     4.309222    7.325554    3.452813
C    13.564692    8.558666    3.409104
C     5.022462    8.558806    3.447114
C     8.580975    9.791885    3.434505
C    11.429369    9.791799    3.425019
C     7.158285    9.791875    3.438425
C    23.529499   11.024018    3.376686
C    26.378243   11.023978    3.374808
C    27.801099   11.023985    3.378868
C    21.393811   12.257081    3.379317
C    29.936855   12.257012    3.378058
C    22.106663   13.490027    3.368283
C    32.072592   13.490044    3.386046
C    21.393883   14.722962    3.372444
C    32.785675   14.722974    3.386055
C    22.106683   15.955962    3.366400
C    32.072680   15.955878    3.377976
C    21.393892   17.188886    3.377265
C    30.649764   18.421830    3.379685
C    22.106707   18.421827    3.377508
C    25.665323   19.654896    3.373536
C    28.513958   19.654820    3.380768
C    24.242426   19.654837    3.376042
C    13.564689    1.159596    3.412745
C     5.022709    1.159263    3.440101
C    26.378196    1.160199    3.389179
C    27.801000    1.160191    3.392595
C    23.529508    1.160183    3.390922
C    22.106604    1.160110    3.396560
C     2.886786    2.392399    3.444549
C    15.700048    2.392801    3.406708
C     2.886625    4.859010    3.457139
C    17.122696    4.859121    3.403709
C    17.835288    6.092230    3.405518
C    17.122751    7.325255    3.402897
C    15.699980    7.325405    3.400962
C    14.987439    8.558399    3.404988
C    28.513935    9.791118    3.397538
C    24.242350    9.791137    3.388620
C    25.665249    9.791061    3.388393
C    21.393805    9.791168    3.395005
C    12.852157    9.791581    3.418096
C     4.309419    9.791933    3.447453
C    30.649650   11.024112    3.396893
C    22.106606   11.024111    3.382996
C     9.293865   11.024908    3.435403
C    10.716576   11.024770    3.431654
C     6.445229   11.024883    3.440411
C     5.022679   11.024909    3.442609
C    19.971001   12.257171    3.391525
C    32.785412   12.257187    3.403088
C    19.971110   14.722994    3.389109
C     0.039051   14.723058    3.397927
C     0.752218   15.955866    3.400112
C     0.039034   17.188763    3.395842
C    32.785673   17.188799    3.386191
C    32.072478   18.421738    3.388217
C    11.429314   19.654105    3.422487
C     7.158431   19.653981    3.435005
C     8.580929   19.654018    3.431086
C     4.309728   19.654000    3.432405
C    29.936696   19.654750    3.387514
C    21.393873   19.654800    3.391100
C     2.174026    1.159450    3.432122
C    19.258305    1.160083    3.408032
C    32.072160    1.159958    3.411593
C    14.987558    1.159859    3.411923
C    17.835448    1.159921    3.411725
C     0.751470    1.159645    3.425380
C    30.649520    1.160050    3.405321
C    19.970896    2.393059    3.409747
C    17.122831    2.393005    3.408574
C    25.665221    2.393195    3.402137
C    24.242341    2.393127    3.402282
C    28.513840    2.393091    3.410029
C    21.393753    2.393155    3.406991
C    29.936540    2.393059    3.415432
C    19.258122    3.626122    3.411178
C    17.835291    3.626018    3.408135
C     2.173645    3.625679    3.451176
C    26.378118    3.626125    3.414915
C    23.529424    3.626153    3.411940
C    22.106493    3.626119    3.412775
C    19.970782    4.859134    3.413392
C    24.242313    4.859142    3.417731
C    21.393629    4.859156    3.415420
C    19.258083    6.092206    3.410088
C     2.173526    6.092304    3.459098
C    23.529362    6.092195    3.416581
C    22.106485    6.092213    3.415715
C    19.970788    7.325229    3.409322
C    24.242306    7.325172    3.411883
C    25.665190    7.325166    3.413417
C    21.393666    7.325166    3.410402
C     2.886624    7.325599    3.457327
C    23.529421    8.558129    3.401456
C    26.378155    8.558171    3.404127
C    27.800960    8.558167    3.408276
C     2.173636    8.558716    3.454671
C    19.258149    8.558213    3.404794
C    17.835335    8.558388    3.404777
C    22.106564    8.558210    3.402958
C    19.970915    9.791248    3.399922
C     2.886894    9.791877    3.449521
C    15.699950    9.791501    3.409581
C    29.936660    9.791165    3.405634
C    17.122837    9.791331    3.406367
C    19.258293   11.024148    3.398913
C     2.174000   11.024795    3.440487
C    14.987447   11.024342    3.417171
C    32.072301   11.024260    3.408802
C     0.751475   11.024570    3.432888
C    17.835430   11.024324    3.406661
C    13.564600   11.024599    3.422488
C     2.887362   12.257699    3.434139
C     0.038748   12.257337    3.415768
C     8.580889   12.257789    3.436899
C     7.158410   12.257782    3.437971
C    11.429246   12.257679    3.433686
C     4.309760   12.257764    3.437323
C    12.851979   12.257443    3.429966
C     2.174404   13.490435    3.421284
C     0.752011   13.490241    3.411457
C    19.258353   13.490106    3.396482
C     9.293898   13.490559    3.436420
C     6.445365   13.490527    3.434426
C     5.023147   13.490547    3.432494
C     2.887740   14.723153    3.418373
C     7.158577   14.723183    3.432965
C     4.310050   14.723173    3.425093
C     2.174614   15.955838    3.409881
C    19.258376   15.955943    3.398470
C     6.445469   15.955830    3.429871
C     5.023285   15.955836    3.425674
C     2.887752   17.188558    3.414901
C     7.158645   17.188481    3.431687
C     8.580884   17.188530    3.431735
C     4.309993   17.188528    3.422878
C    19.971071   17.188819    3.393239
C     6.445430   18.421197    3.432685
C     9.293842   18.421260    3.430424
C    10.716443   18.421352    3.427892
C    19.258363   18.421769    3.403046
C     2.174470   18.421378    3.414533
C     0.751974   18.421519    3.405869
C     5.023044   18.421192    3.429696
C     2.887325   19.654074    3.426097
C    19.971018   19.654697    3.401428
C    32.785312   19.654613    3.402905
C    12.852073   19.654370    3.419807
C     0.038696   19.654391    3.410369
C    32.784841    2.392908    3.427635
C     0.038265    2.392725    3.433714
C    30.649298    3.626060    3.429800
C    32.071895    3.625974    3.435205
C     0.751024    3.625873    3.446888
C    27.800929    3.626124    3.418573
C    28.513791    4.859119    3.427986
C    29.936444    4.859155    3.433201
C     0.037972    4.859115    3.451354
C    25.665177    4.859162    3.419341
C    26.378090    6.092199    3.421403
C    27.800882    6.092187    3.425322
C     0.750891    6.092346    3.456828
C    28.513757    7.325209    3.422601
C    29.936450    7.325262    3.429003
C     0.038024    7.325483    3.452538
C     0.751025    8.558621    3.450838
C    30.649405    8.558248    3.423749
C    32.071998    8.558361    3.433080
C     0.038330    9.791566    3.438305
C    32.784989    9.791359    3.427848
C    15.700039   12.257348    3.420741
C    17.122848   12.257224    3.412671
C    13.564586   13.490309    3.433090
C    14.987466   13.490163    3.428120
C    17.835516   13.490178    3.410659
C    10.716399   13.490433    3.435616
C    11.429174   14.723207    3.436269
C    12.851894   14.723096    3.435500
C    17.122900   14.723024    3.418529
C     8.580888   14.723230    3.434280
C     9.293883   15.955860    3.433687
C    10.716337   15.955887    3.434069
C    17.835612   15.955929    3.414215
C    11.429195   17.188655    3.432074
C    12.851918   17.188707    3.431716
C    17.122971   17.188808    3.419915
C    17.835587   18.421669    3.414569
C    13.564644   18.421476    3.426799
C    14.987488   18.421634    3.425213
C    17.122942   19.654665    3.415495
C    15.700068   19.654466    3.418809
C    32.784627    4.859102    3.445665
C    30.649245    6.092239    3.437736
C    32.071815    6.092237    3.444241
C    32.784702    7.325325    3.445441
C    15.700064   14.723052    3.428607
C    13.564578   15.955916    3.435117
C    14.987414   15.955935    3.431802
C    15.700095   17.188718    3.428188
C     7.165268    4.855273    6.605716
C    24.247518   14.721617    6.617247
C     7.876353    3.621173    6.602781
C    10.024069    4.858760    6.617088
C     7.162609    7.330491    6.575890
C    24.959308   13.488834    6.618200
C    27.092561   14.721936    6.616195
C    24.247678   17.187342    6.619484
C     9.307787    3.618690    6.618021
C     5.732175    4.856271    6.634037
C     7.876191    6.094377    6.619145
C     9.309021    6.095551    6.618033
C     5.734572    7.330755    6.585968
C     7.876889    8.565797    6.599482
C    26.380755   13.489211    6.617127
C    22.826057   14.721652    6.622036
C    24.959362   15.954490    6.616756
C    26.380761   15.954626    6.615687
C    22.826099   17.187352    6.624286
C    24.959437   18.420258    6.623270
C     5.023118    3.621796    6.639647
C    11.453464    4.860053    6.611028
C    22.114404   13.488832    6.625210
C    28.513811   14.722182    6.618193
C     5.020042    6.096002    6.636364
C     5.020338    8.567815    6.611404
C    22.114247   15.954542    6.624909
C    22.114473   18.420245    6.630749
C     7.165948    2.382967    6.623574
C    10.021250    2.380530    6.618259
C     3.593842    3.619713    6.669475
C    12.167608    3.621416    6.607318
C    10.024175    7.327360    6.618941
C    24.247645   12.255877    6.623041
C    27.092263   12.256469    6.623282
C    20.692809   13.489134    6.631594
C    29.225092   13.489672    6.623618
C    27.092349   17.187361    6.619036
C     5.735602    2.384240    6.648008
C    11.451220    2.381008    6.607035
C     2.875600    4.859070    6.657317
C     3.589669    6.095701    6.643427
C    12.166954    6.095701    6.634503
C    11.452485    7.329573    6.640523
C     9.307541    8.565859    6.621379
C     7.165510    9.799996    6.622873
C    22.826189   12.255878    6.626745
C    28.513371   12.257043    6.625888
C    19.980887   14.721810    6.634741
C    20.692679   15.954543    6.632881
C    29.225487   15.954750    6.620992
C    28.513566   17.186975    6.620847
C    26.380761   18.420229    6.622394
C    24.247815   19.653264    6.630703
C     5.732234    9.799831    6.631743
C    22.826215   19.653270    6.634763
C     9.310120    1.145793    6.632161
C     5.019504    1.148688    6.669617
C     2.880238    2.379517    6.660234
C    13.591134    3.623269    6.620697
C    14.298410    4.858262    6.627470
C    13.587740    6.093249    6.631401
C    26.380742   11.023483    6.629100
C    22.114656   11.022944    6.633209
C    19.981474   12.256372    6.635650
C    30.646400   13.490500    6.630010
C    31.358422   14.722699    6.630615
C    30.646758   15.954960    6.625257
C     3.592165    1.145969    6.670126
C     7.881528    1.149943    6.643033
C    12.160859    1.148352    6.623834
C    24.959736    1.158541    6.638828
C    14.296813    2.388033    6.627125
C    14.296471    7.327075    6.637408
C    12.162389    8.563928    6.647703
C    10.023835    9.799114    6.643508
C    20.693185   11.023432    6.637284
C    24.959430   11.022979    6.629394
C    29.224751   11.024336    6.636662
C     7.875881   11.035872    6.648930
C    31.357707   12.258202    6.643121
C    31.358376   17.187042    6.629648
C    29.224857   18.419442    6.627468
C    27.092341   19.653026    6.630540
C    13.584185    1.154293    6.627494
C    26.381085    1.158459    6.638166
C    22.114477    1.158539    6.643338
C     1.452062    2.381415    6.653865
C    15.718935    4.857895    6.633323
C     1.449681    4.860761    6.665059
C    16.428971    6.091899    6.638626
C    15.717959    7.325487    6.637142
C     2.872568    7.327146    6.657530
C    13.584518    8.560500    6.643442
C     3.591354    8.565402    6.660241
C    27.092437    9.790731    6.639126
C    28.513460    9.791329    6.642273
C    11.451475    9.797290    6.651405
C    30.645837   11.025579    6.645185
C     9.307614   11.036777    6.651002
C     5.021989   11.037670    6.660728
C    18.559883   12.256875    6.641353
C    32.780300   14.723117    6.638992
C    18.559172   14.722007    6.643097
C    33.492968   15.954842    6.639527
C    32.780410   17.186316    6.633815
C    19.981160   17.187253    6.638287
C    30.645902   18.418861    6.630117
C    20.692972   18.420101    6.638035
C    10.019000   19.646213    6.636652
C    11.444997   19.646400    6.631564
C    28.513311   19.652123    6.632039
C    30.645100    1.156089    6.643441
C    29.224375    1.157270    6.642369
C    15.718253    2.389899    6.635190
C    28.513441    2.390697    6.650260
C    27.092565    2.391521    6.648907
C    24.247875    2.391481    6.647736
C     0.734666    3.621069    6.657858
C    16.428593    3.623694    6.638239
C    26.380882    3.624655    6.655790
C    18.560907    4.857827    6.650677
C    17.850006    6.091431    6.645347
C    28.513324    7.324905    6.660519
C    18.560730    7.324811    6.647711
C    17.849408    8.558097    6.643183
C    16.427887    8.559118    6.641434
C    29.224670    8.558231    6.655961
C    24.247837    9.790134    6.637440
C    22.826388    9.790119    6.639412
C    19.981762    9.790715    6.642002
C    18.560228    9.791231    6.642848
C    15.716202    9.792250    6.643210
C    31.356790    9.792741    6.662201
C    14.293541    9.793907    6.647271
C    13.581324   11.026399    6.653075
C    12.157377   11.028732    6.657803
C    32.779223   12.259744    6.656830
C    11.443568   12.262190    6.661813
C    10.019340   12.267544    6.665494
C     7.161280   12.269452    6.665536
C    17.847840   13.489481    6.644260
C    33.491748   13.491499    6.654324
C     9.302681   13.495866    6.666061
C     1.459801   14.724144    6.662284
C     0.746840   15.955098    6.647939
C    11.441362   17.185174    6.648753
C     1.459454   17.185327    6.650155
C     0.745617   18.415812    6.645295
C    33.492131   18.417972    6.639048
C    12.155246   18.416263    6.642692
C     7.166461   19.641809    6.667000
C     5.734635   19.642711    6.680001
C     2.881521   19.645339    6.662264
C     1.456833   19.646388    6.652752
C    32.778393   19.649381    6.640022
C    14.293250   19.649932    6.640013
C    31.356818   19.651316    6.637775
C     0.740723    1.147396    6.652224
C    33.488467    1.154094    6.648294
C    16.428068    1.156431    6.642726
C    20.692993    1.158494    6.647181
C    32.775642    2.387554    6.654871
C    31.355551    2.389633    6.654480
C    18.560587    2.390971    6.649495
C    22.826375    2.391518    6.649989
C    30.644926    3.623479    6.662199
C    29.224579    3.624144    6.660831
C    17.849858    3.624346    6.646255
C    24.959559    3.624737    6.655640
C    22.114986    3.624839    6.656324
C    20.693488    3.624860    6.656215
C    27.092448    4.857931    6.662389
C    24.248018    4.858079    6.659481
C    28.513266    4.857707    6.664456
C    22.826620    4.858115    6.660024
C    19.982198    4.858098    6.655979
C    26.380907    6.091369    6.660753
C    24.959704    6.091383    6.659886
C    22.115021    6.091428    6.658615
C    29.224436    6.091444    6.667467
C    20.693604    6.091458    6.657198
C    30.644560    6.092005    6.671861
C     0.734520    6.096613    6.682928
C    24.248037    7.324515    6.654236
C    22.826562    7.324525    6.654751
C    27.092483    7.324556    6.657393
C    19.982072    7.324563    6.651450
C    31.355796    7.325755    6.675236
C     1.448151    7.329642    6.688514
C    24.959806    8.557407    6.646789
C    22.114654    8.557381    6.647276
C    26.381015    8.557697    6.647086
C    20.693257    8.557682    6.647812
C    30.645263    8.559476    6.664100
C    32.777873    9.794893    6.676932
C     2.874137    9.800860    6.680302
C    17.848682   11.024150    6.641933
C    16.426620   11.025100    6.645287
C    33.489983   11.027386    6.676445
C     3.591406   11.037076    6.680023
C    15.714408   12.257733    6.649199
C    14.291574   12.258772    6.654680
C     1.456636   12.263035    6.684727
C     5.736712   12.269241    6.672172
C    13.578862   13.490800    6.657384
C    12.154267   13.492415    6.662004
C     0.745532   13.493618    6.667358
C     7.876098   13.495431    6.669647
C     5.021983   13.496485    6.677232
C     3.596244   13.496463    6.680242
C    10.015195   14.724950    6.663942
C     7.161514   14.725287    6.671762
C    11.440314   14.723615    6.660017
C     5.736983   14.725328    6.675672
C     2.883656   14.725771    6.670186
C     9.301419   15.955274    6.661579
C     7.876191   15.954847    6.669501
C     5.022559   15.955046    6.673975
C    12.153342   15.954712    6.655436
C     3.598082   15.955652    6.668707
C    13.577794   15.954635    6.654698
C    17.847416   15.954634    6.647553
C     7.162791   17.183632    6.672839
C     5.736621   17.184021    6.677724
C    10.015930   17.184951    6.653552
C     2.883724   17.184823    6.660671
C    14.290548   17.186425    6.652631
C    18.559522   17.186881    6.646081
C     7.879832   18.411501    6.668022
C     5.019977   18.410975    6.680119
C     9.304247   18.414006    6.650224
C     3.596389   18.414200    6.668591
C    13.579350   18.418103    6.644403
C    15.716125   19.651621    6.644096
C    19.981676   19.652982    6.643926
C    17.849637    1.157454    6.646605
C    19.981896    2.391688    6.651538
C    33.482634    3.623153    6.666527
C    31.355215    4.857856    6.671579
C    32.774282    4.858266    6.673703
C    33.485722    6.093444    6.683793
C    32.775768    7.327659    6.684187
C    33.487699    8.561102    6.689841
C     0.738522    8.564305    6.694957
C     1.449728    9.797757    6.695460
C     0.742796   11.030257    6.688612
C     2.879128   12.269317    6.687813
C    16.425594   13.490141    6.650205
C    14.290270   14.722592    6.656719
C    15.713407   14.722436    6.653274
C    16.425300   15.954876    6.653304
C    15.713855   17.187117    6.652736
C    16.426640   18.419106    6.650463
C    17.848479   18.419478    6.648185
C    18.560282   19.652192    6.647641
