546       
Geometry optimisation iteration:    22
Li    8.585054    4.866479    8.737819
Li   25.655609   14.732189    8.738898
C    10.018904    4.864749    6.829900
C     7.148783    4.864733    6.832358
C     7.864352    6.108721    6.831985
C     9.303345    6.108726    6.830809
C    27.101797   14.728621    6.837424
C    24.232050   14.728614    6.827359
C    24.947638   15.972654    6.829736
C    26.386442   15.972558    6.834774
C     7.864269    3.620591    6.831689
C     9.303415    3.620607    6.830503
C    11.433707    7.334658    6.844157
C    10.011134    7.338671    6.832292
C     7.156451    7.338681    6.834006
C     7.867860    8.566322    6.847485
C     9.299645    8.566280    6.847240
C    24.947568   13.484483    6.829793
C    26.386458   13.484597    6.834844
C    28.516826   17.198527    6.850482
C    27.094245   17.202530    6.837430
C    24.240032   17.202641    6.831503
C    24.951448   18.430202    6.847789
C    26.383101   18.430265    6.848381
C     7.867878    1.163047    6.846683
C     9.299592    1.163091    6.846421
C    12.142962    1.160339    6.852201
C     5.024307    1.160238    6.853395
C    33.495399    1.169320    6.857335
C     3.594891    1.161112    6.855819
C    16.412136    1.168420    6.857054
C     0.754604    1.168378    6.856508
C    13.572213    1.161193    6.855549
C    17.840368    1.169350    6.858369
C    20.681072    1.164242    6.858418
C    29.224870    1.164127    6.856505
C    30.654385    1.164219    6.856143
C    24.952877    1.171769    6.853071
C    22.110448    1.164253    6.857961
C    26.382285    1.171746    6.851773
C    10.011165    2.390621    6.830717
C     7.156395    2.390606    6.832490
C     5.733745    2.394840    6.847165
C    14.283608    2.397392    6.854863
C     2.883550    2.397316    6.854439
C    11.433732    2.394906    6.844598
C    31.365065    2.399580    6.855548
C     1.462251    2.398409    6.845011
C    18.548474    2.399111    6.847944
C    32.787294    2.399105    6.845756
C    15.704764    2.398483    6.845814
C    22.821971    2.400304    6.858252
C    27.090611    2.400237    6.844880
C    19.970586    2.399610    6.858458
C    28.513401    2.400284    6.857279
C    24.244696    2.400271    6.846108
C    12.145872    3.632751    6.843911
C    33.495306    3.629034    6.858207
C     3.594545    3.633805    6.850698
C    16.412678    3.628744    6.858190
C    20.681823    3.635277    6.856994
C    30.653894    3.635286    6.854488
C     0.754306    3.628715    6.856908
C     5.021561    3.632717    6.846953
C    13.572746    3.633874    6.850019
C    17.840718    3.629039    6.859983
C    29.224711    3.635265    6.856939
C    24.953207    3.629586    6.860041
C    22.110915    3.635199    6.858336
C    26.382311    3.629655    6.858881
C    27.093935    4.864841    6.858278
C    31.361808    4.864849    6.843617
C     1.465700    4.864944    6.853907
C    14.280720    4.864812    6.840592
C    18.552089    4.864928    6.858327
C    22.819045    4.864748    6.848520
C    28.516484    4.864817    6.846736
C    32.783874    4.864996    6.856213
C     2.886527    4.864790    6.840341
C    11.441772    4.864706    6.829691
C    15.701398    4.864927    6.855083
C    19.974043    4.864798    6.846014
C    24.241513    4.864821    6.860443
C     5.725803    4.864681    6.833879
C    24.953267    6.099911    6.859599
C    29.224672    6.094424    6.858567
C    33.495448    6.100826    6.856013
C    16.412707    6.101009    6.855895
C    20.681703    6.094372    6.858055
C    26.382210    6.099861    6.858468
C    30.654043    6.094471    6.855655
C     0.754299    6.101082    6.854667
C    17.840592    6.100712    6.857719
C    22.110948    6.094353    6.859844
C     3.594526    6.095768    6.851251
C    12.145782    6.096741    6.845144
C    13.572792    6.095774    6.850566
C     5.021672    6.096711    6.848128
C    24.244679    7.329191    6.848722
C    22.821901    7.329350    6.859313
C    27.090609    7.329272    6.847481
C    31.365172    7.330334    6.854961
C    18.548375    7.330576    6.847222
C    28.513446    7.329482    6.858353
C    32.787410    7.330695    6.845160
C    15.704684    7.331221    6.844644
C    19.970461    7.330186    6.857768
C     1.462357    7.331299    6.843913
C    14.283542    7.332417    6.853046
C     2.883651    7.332427    6.852677
C     5.733822    7.334669    6.846657
C    24.952771    8.557761    6.859068
C    29.225023    8.565491    6.856322
C    22.110265    8.565257    6.857852
C    26.382354    8.557804    6.857751
C    20.681031    8.565388    6.857145
C    33.495459    8.560510    6.858815
C    16.411914    8.561354    6.858090
C    30.654405    8.565533    6.854901
C    17.840297    8.560384    6.859761
C     3.595117    8.568441    6.851926
C     0.754833    8.561423    6.857557
C    13.572064    8.568437    6.851630
C    12.142957    8.569190    6.848204
C     5.024381    8.569218    6.849388
C    27.094150    9.793511    6.853279
C    24.240594    9.793420    6.854862
C    22.817225    9.793716    6.844844
C    28.517619    9.793850    6.843533
C    18.550879    9.796373    6.859074
C    31.362595    9.795540    6.844891
C    19.972735    9.795332    6.846729
C    32.784607    9.796515    6.857972
C    15.700735    9.797230    6.856006
C     1.466009    9.797297    6.855946
C    14.278843    9.798034    6.843675
C     2.888064    9.798042    6.843815
C     5.733304    9.799492    6.839928
C    10.010615    9.799924    6.849289
C    11.434051    9.799494    6.839262
C     7.156812    9.799927    6.849156
C    24.951483   11.026913    6.847173
C    26.383017   11.026890    6.847879
C    29.226346   11.024187    6.854652
C    22.108407   11.024054    6.853772
C    16.411267   11.033039    6.856465
C    20.679267   11.024974    6.856554
C    33.495976   11.032300    6.857311
C    17.839482   11.032163    6.857820
C    30.655706   11.025182    6.854957
C     0.755188   11.033090    6.856637
C     3.596383   11.027939    6.857507
C    12.141054   11.028038    6.855162
C    13.570535   11.027929    6.856817
C     7.868885   11.035488    6.851088
C     5.026042   11.027968    6.856178
C     9.298425   11.035491    6.851220
C    27.094221   12.254592    6.836277
C    24.240012   12.254428    6.830184
C    22.817570   12.258671    6.844963
C    31.366917   12.261247    6.853203
C    19.967938   12.261130    6.855345
C    28.516807   12.258803    6.851236
C    14.281171   12.263365    6.857216
C    18.546850   12.262195    6.846577
C     1.463247   12.262908    6.846398
C    15.703260   12.262889    6.845696
C    32.788224   12.262270    6.845193
C     5.737538   12.264015    6.856133
C    10.006765   12.263980    6.843629
C     2.885514   12.263341    6.857806
C    11.429577   12.264065    6.854874
C     7.160408   12.263966    6.843857
C    29.229017   13.496683    6.850591
C    16.410944   13.492900    6.857476
C    20.678635   13.497575    6.850470
C    33.496256   13.492476    6.858450
C     3.596893   13.499080    6.856543
C    13.569823   13.499123    6.855495
C    17.838933   13.492454    6.858486
C    22.105385   13.496561    6.843386
C    30.655992   13.497637    6.850792
C     0.755274   13.492895    6.858276
C    12.140630   13.498976    6.855832
C     7.868940   13.493353    6.858318
C     5.026244   13.498944    6.857185
C     9.298159   13.493309    6.858338
C    10.009887   14.728608    6.858167
C    14.277723   14.728620    6.843899
C    18.550271   14.728746    6.856974
C    31.363882   14.728624    6.841093
C     1.466617   14.728731    6.855753
C     5.734546   14.728492    6.846929
C    11.432425   14.728545    6.845870
C    15.699735   14.728759    6.854794
C    19.970871   14.728574    6.841866
C    28.524736   14.728572    6.839372
C    32.784696   14.728762    6.856218
C     2.888791   14.728563    6.844835
C     7.157198   14.728564    6.858170
C    22.809297   14.728505    6.827547
C     7.868996   15.963641    6.857901
C    12.140586   15.958181    6.857413
C    16.411064   15.964507    6.855398
C    33.496273   15.964938    6.856213
C     3.596760   15.958076    6.857707
C     9.298065   15.963702    6.857897
C    13.569925   15.958141    6.856695
C    17.838904   15.964957    6.856319
C     0.755125   15.964465    6.856170
C     5.026268   15.958104    6.858732
C    20.678614   15.959616    6.851090
C    29.228942   15.960567    6.851677
C    30.656036   15.959650    6.851277
C    22.105486   15.960538    6.844661
C     7.160353   17.192987    6.846328
C     5.737421   17.193127    6.857066
C    10.006773   17.193023    6.846129
C    14.281274   17.194067    6.856592
C     1.463124   17.194368    6.845732
C    11.429640   17.193196    6.855882
C    15.703370   17.194461    6.845118
C    32.788120   17.195071    6.844032
C     2.885382   17.193996    6.857143
C    18.546957   17.195103    6.845539
C    31.366851   17.196215    6.851326
C    19.968030   17.196248    6.853601
C    22.817585   17.198553    6.844464
C     7.868732   18.421516    6.856883
C    12.141219   18.429103    6.854919
C     5.025816   18.429052    6.855901
C     9.298482   18.421521    6.857066
C     3.596290   18.429213    6.856137
C    16.411324   18.424369    6.857933
C    33.495738   18.425083    6.858363
C    13.570566   18.429314    6.855454
C     0.755109   18.424266    6.858033
C    20.679428   18.432235    6.852662
C    17.839687   18.425196    6.858992
C    30.655588   18.432160    6.850962
C    29.226406   18.433057    6.850484
C    22.108431   18.433071    6.849745
C    10.010636   19.657195    6.852766
C     7.156719   19.657190    6.852565
C     5.733160   19.657473    6.842819
C    11.434100   19.657562    6.842161
C     1.465828   19.660189    6.856416
C    14.278965   19.659214    6.844862
C     2.887891   19.659119    6.845001
C    15.700873   19.660302    6.856475
C    32.784461   19.661032    6.857439
C    18.551035   19.661093    6.858658
C    31.362500   19.661815    6.843623
C    19.972868   19.661896    6.845534
C    22.817294   19.663345    6.841811
C    27.094146   19.663776    6.849625
C    28.517585   19.663296    6.840511
C    24.240655   19.663823    6.851269
Li    0.030953   19.653551    4.970744
Li    0.032998   14.721272    4.971576
Li    0.031158    9.788206    4.970708
Li    0.029121    4.856627    4.970664
Li    4.308212   17.184114    4.972249
Li    4.308272   12.257072    4.971975
Li    4.302249    7.329739    4.965803
Li    4.302220    2.384681    4.967424
Li    8.586075    4.857308    4.957228
Li    8.587253    9.799089    4.964719
Li    8.587201   14.721139    4.971076
Li    8.587278   19.642165    4.967867
Li   12.865002   17.184152    4.971049
Li   12.865059   12.257047    4.970742
Li   12.872524    7.330182    4.964694
Li   12.872515    2.384351    4.966326
Li   17.137082   19.653734    4.970697
Li   17.134292   14.721232    4.970732
Li   17.136756    9.787980    4.970640
Li   17.139606    4.856551    4.971699
Li   21.388080   17.192834    4.964801
Li   21.388163   12.248038    4.966334
Li   21.399600    7.322018    4.972305
Li   21.399529    2.392456    4.972037
Li   25.659624   19.664843    4.964734
Li   25.665727   14.721744    4.957081
Li   25.659617    9.776932    4.968014
Li   25.659599    4.856429    4.971083
Li   29.933388   17.191429    4.965779
Li   29.933288   12.249591    4.967400
Li   29.926551    7.322114    4.970972
Li   29.926545    2.392498    4.970629
C    10.010211    4.864872    3.092312
C     7.157126    4.864837    3.092587
C     7.868890    6.101280    3.093007
C     9.298446    6.101309    3.092869
C    27.094376   14.728638    3.091138
C    24.241602   14.728630    3.090811
C    24.953290   15.965059    3.091685
C    26.382717   15.965071    3.091888
C     7.868830    3.628276    3.090379
C     9.298525    3.628291    3.090234
C    11.429411    7.331231    3.083361
C    10.006755    7.331441    3.097992
C     7.160615    7.331441    3.097942
C     7.868957    8.561375    3.080807
C     9.298398    8.561362    3.080527
C    24.953220   13.492106    3.089124
C    26.382764   13.492101    3.089351
C    28.513387   17.195065    3.080565
C    27.090832   17.195293    3.096521
C    24.245084   17.195198    3.096464
C    24.953288   18.425127    3.079662
C    26.382621   18.425238    3.080426
C     7.869037    1.168152    3.084228
C     9.298300    1.168188    3.083902
C    12.140493    1.162623    3.079293
C     5.026768    1.162542    3.079813
C    33.495419    1.169024    3.081991
C     3.597277    1.162567    3.078534
C    16.411650    1.168852    3.082391
C     0.755404    1.168893    3.082781
C    13.569919    1.162579    3.077229
C    17.840775    1.168932    3.081880
C    20.682438    1.163212    3.080032
C    29.224416    1.163277    3.077167
C    30.653614    1.163346    3.079676
C    24.953362    1.169302    3.074681
C    22.111585    1.163233    3.078472
C    26.382548    1.169288    3.075300
C    10.006752    2.398100    3.097846
C     7.160617    2.398071    3.097830
C     5.737910    2.398469    3.084329
C    14.281263    2.398885    3.078265
C     2.885944    2.398853    3.079686
C    11.429428    2.398523    3.084338
C    31.364588    2.399171    3.082464
C     1.463239    2.398911    3.092240
C    18.548830    2.398971    3.092652
C    32.787270    2.399058    3.092554
C    15.703908    2.398918    3.091525
C    22.822780    2.399112    3.079790
C    27.090516    2.399208    3.087746
C    19.971436    2.399066    3.082298
C    28.513078    2.399211    3.078114
C    24.245309    2.399142    3.087791
C    12.140815    3.634586    3.084872
C    33.495166    3.628989    3.080046
C     3.597262    3.634717    3.081358
C    16.411742    3.629022    3.081223
C    20.682605    3.634850    3.082663
C    30.653431    3.634940    3.082047
C     0.755355    3.629021    3.080950
C     5.026444    3.634560    3.085217
C    13.569946    3.634776    3.080226
C    17.841047    3.628915    3.080612
C    29.224387    3.635011    3.080665
C    24.953342    3.629032    3.077704
C    22.111581    3.634856    3.082068
C    26.382533    3.629122    3.078294
C    27.093669    4.864888    3.081131
C    31.361371    4.864902    3.091665
C     1.466414    4.864942    3.082072
C    14.278064    4.864847    3.090689
C    18.552162    4.864936    3.080929
C    22.819543    4.864772    3.091637
C    28.516276    4.864858    3.091101
C    32.784007    4.865013    3.080276
C     2.889135    4.864820    3.091570
C    11.432880    4.864786    3.098726
C    15.700735    4.864931    3.082011
C    19.974736    4.864819    3.092083
C    24.242090    4.864855    3.079954
C     5.734432    4.864741    3.099095
C    24.953382    6.100551    3.080750
C    29.224300    6.094746    3.078954
C    33.495288    6.100858    3.081443
C    16.411789    6.100713    3.082334
C    20.682532    6.094807    3.080497
C    26.382440    6.100507    3.081331
C    30.653521    6.094898    3.080035
C     0.755320    6.100748    3.082122
C    17.840944    6.100794    3.081959
C    22.111644    6.094716    3.080237
C     3.597219    6.094914    3.078566
C    12.140734    6.095027    3.082511
C    13.570022    6.094934    3.077337
C     5.026562    6.094971    3.082917
C    24.245281    7.330350    3.090265
C    22.822766    7.330571    3.080667
C    27.090509    7.330369    3.090281
C    31.364625    7.330785    3.082081
C    18.548802    7.330684    3.092121
C    28.513063    7.330648    3.079153
C    32.787328    7.330738    3.092097
C    15.703860    7.330788    3.090215
C    19.971400    7.330715    3.081757
C     1.463323    7.330796    3.091015
C    14.281217    7.330978    3.076271
C     2.886024    7.330947    3.077818
C     5.737963    7.331220    3.083373
C    24.953252    8.560229    3.077066
C    29.224493    8.566448    3.080205
C    22.111478    8.566346    3.081314
C    26.382598    8.560290    3.077694
C    20.682481    8.566423    3.081999
C    33.495422    8.560803    3.080031
C    16.411521    8.560915    3.079935
C    30.653576    8.566465    3.081789
C    17.840794    8.560765    3.079925
C     3.597464    8.567078    3.078048
C     0.755578    8.560921    3.080386
C    13.569791    8.567113    3.076653
C    12.140535    8.567053    3.078746
C     5.026774    8.567059    3.079236
C    27.093761    9.796219    3.080246
C    24.241976    9.796221    3.078902
C    22.819394    9.796259    3.090370
C    28.516411    9.796283    3.090182
C    18.551821    9.796708    3.080318
C    31.361617    9.796559    3.091261
C    19.974476    9.796480    3.090895
C    32.784353    9.796761    3.080595
C    15.700415    9.796960    3.081545
C     1.466741    9.796948    3.082427
C    14.277682    9.796962    3.089973
C     2.889536    9.796953    3.091272
C     5.734961    9.797142    3.089659
C    10.009750    9.797316    3.077022
C    11.432419    9.797172    3.088916
C     7.157649    9.797295    3.077714
C    24.953342   11.031968    3.082975
C    26.382474   11.031890    3.083707
C    29.224535   11.026339    3.077984
C    22.111439   11.026352    3.078552
C    16.411370   11.032698    3.082854
C    20.682097   11.026384    3.077647
C    33.495718   11.032703    3.081998
C    17.840495   11.032662    3.081457
C    30.653950   11.026493    3.078305
C     0.755716   11.032709    3.083607
C     3.597635   11.027009    3.080780
C    12.140355   11.027150    3.079007
C    13.569608   11.027003    3.079174
C     7.869025   11.033124    3.076528
C     5.026948   11.027105    3.079960
C     9.298341   11.033145    3.076075
C    27.090795   12.261846    3.096393
C    24.245081   12.261895    3.096278
C    22.822505   12.262285    3.082737
C    31.365157   12.262666    3.080235
C    19.970836   12.262639    3.078670
C    28.513379   12.262289    3.081595
C    14.280736   12.262896    3.080900
C    18.548249   12.262657    3.090820
C     1.463773   12.262794    3.094137
C    15.703364   12.262806    3.092613
C    32.787818   12.262680    3.091856
C     5.738211   12.262963    3.081787
C    10.006508   12.262980    3.089458
C     2.886458   12.262873    3.082839
C    11.429125   12.262992    3.081051
C     7.160850   12.262977    3.089936
C    29.224929   13.498428    3.082931
C    16.411120   13.492794    3.080772
C    20.682075   13.498460    3.080244
C    33.495788   13.492725    3.080562
C     3.597775   13.498722    3.082995
C    13.569427   13.498762    3.081227
C    17.840416   13.492732    3.079457
C    22.111127   13.498349    3.083832
C    30.654015   13.498461    3.080768
C     0.755957   13.492800    3.082155
C    12.140342   13.498742    3.082104
C     7.869012   13.492889    3.079417
C     5.026924   13.498727    3.083160
C     9.298337   13.492858    3.078928
C    10.009623   14.728705    3.081267
C    14.277465   14.728666    3.091468
C    18.551523   14.728711    3.079256
C    31.361973   14.728615    3.090385
C     1.466970   14.728749    3.083398
C     5.735041   14.728602    3.093276
C    11.432285   14.728635    3.092214
C    15.700115   14.728723    3.081676
C    19.974144   14.728568    3.089665
C    28.517013   14.728575    3.096635
C    32.784645   14.728744    3.080312
C     2.889684   14.728639    3.093204
C     7.157757   14.728684    3.082159
C    22.818995   14.728521    3.097331
C     7.869079   15.964363    3.082320
C    12.140293   15.958570    3.080318
C    16.411205   15.964524    3.082025
C    33.495826   15.964639    3.081699
C     3.597669   15.958576    3.080778
C     9.298266   15.964407    3.081837
C    13.569517   15.958599    3.079051
C    17.840342   15.964585    3.080581
C     0.755823   15.964557    3.083400
C     5.026963   15.958519    3.081324
C    20.682018   15.958707    3.077426
C    29.224857   15.958788    3.080468
C    30.654082   15.958797    3.077871
C    22.111223   15.958749    3.081475
C     7.160811   17.194176    3.092441
C     5.738161   17.194381    3.082764
C    10.006536   17.194229    3.091917
C    14.280773   17.194587    3.080489
C     1.463707   17.194524    3.093672
C    11.429154   17.194431    3.082050
C    15.703407   17.194505    3.092150
C    32.787745   17.194650    3.090752
C     2.886398   17.194569    3.082345
C    18.548290   17.194586    3.089669
C    31.365110   17.194782    3.078387
C    19.970876   17.194717    3.076897
C    22.822515   17.194963    3.081817
C     7.868894   18.424059    3.078955
C    12.140448   18.430174    3.082058
C     5.026819   18.430143    3.082978
C     9.298406   18.424051    3.078451
C     3.597628   18.430286    3.082917
C    16.411331   18.424669    3.081084
C    33.495556   18.424693    3.079772
C    13.569571   18.430322    3.081424
C     0.755705   18.424678    3.081857
C    20.682212   18.430812    3.077314
C    17.840590   18.424654    3.079127
C    30.653833   18.430841    3.077898
C    29.224621   18.430918    3.077472
C    22.111403   18.430778    3.078149
C    10.009736   19.660021    3.080413
C     7.157610   19.660020    3.081226
C     5.734894   19.660026    3.092365
C    11.432416   19.660076    3.091506
C     1.466646   19.660574    3.083099
C    14.277725   19.660319    3.091345
C     2.889423   19.660293    3.092569
C    15.700437   19.660562    3.082236
C    32.784282   19.660790    3.080144
C    18.551859   19.660721    3.079804
C    31.361566   19.660801    3.090088
C    19.974514   19.660721    3.089751
C    22.819421   19.660860    3.087840
C    27.093816   19.661110    3.076882
C    28.516438   19.660952    3.087586
C    24.242016   19.661036    3.075521
