609       
Geometry optimisation iteration:    10
Li   20.129130    8.449642    8.865771
Li   18.380123   11.073597    8.887291
Li   18.426141    3.001394    8.889005
Li   12.749711    4.970982    8.812298
Li   23.210577    8.282498    8.856703
Li   15.136087    6.461049    8.812889
Li   15.078641   10.832146    8.720094
Li   17.854540    5.733040    8.823983
Li   20.803213    5.494962    8.868207
Li   19.345433   13.664907    8.852684
Li   23.640173    4.808181    9.048677
Li   17.250909    8.550836    8.964031
Li   12.888984    8.374188    9.090796
Li   15.214650    3.540525    8.725211
Li   21.319937   11.239420    9.150701
Li   21.210633    2.933511   10.367823
Li   16.494211   13.267970    9.852266
Li   19.419221    7.056912   10.922594
Li   11.244189    6.210136   11.514705
Li   21.689865    8.510804   11.256947
Li   19.186537    9.801909   11.060816
Li   18.915040    4.577134   11.086361
Li   15.057700    8.693562   10.892156
Li   16.210405    4.606462   10.958366
Li   18.871301   12.447791   11.436253
Li   21.784396    5.607489   11.339051
Li   16.905298    6.999489   11.089485
Li   13.875685   11.261500   11.517727
Li   14.055598    6.115129   11.321920
Li   23.951407   10.347966   11.570928
Li   16.693088   10.655515   11.096156
Li   13.332718    3.456053   11.504254
Li   24.126820    6.917561   11.623967
Li   21.341486   13.959448   11.546870
Li   23.798761    3.644074   12.011416
Li   17.678130    2.258454   11.790058
Li   18.369853   15.112028   12.237075
Li   21.207678   11.074813   12.185797
Li   17.981213    8.537313   12.704232
Li   20.251433    6.913635   13.438643
Li   13.140189    8.479124   12.936029
Li   16.288117   12.776645   12.947287
Li   20.461460    3.871175   13.207716
Li   17.992958    5.351880   13.456004
Li   22.565185    8.618554   13.712089
Li   15.642954    4.068431   13.513979
Li   17.910115   11.078425   13.924307
Li   13.163825    5.612826   14.067120
Li   15.678947    9.700660   13.491366
Li   15.726625    6.976690   13.531574
Li   19.733205   12.926557   14.025713
Li   22.531025    5.707666   14.377472
Li   20.072524    9.686954   13.965282
Li   14.186718   11.463430   14.934949
Li   22.317926   11.342190   14.950877
Li   18.068133    2.806270   14.931334
Li   18.079524    7.889355   15.292859
Li   19.566900    5.469997   15.871312
Li   17.162411   13.204105   15.858165
Li   14.553461    8.091177   15.859849
Li   16.489067    5.643468   16.090078
Li   20.813335    8.136907   16.248222
Li   16.711355   10.014098   16.113215
Li   19.423847   10.786649   16.437850
Li   18.129406    7.834160   18.212587
C     9.987131    4.860631    6.877969
C     7.145300    4.863122    6.866220
C     7.855496    6.099764    6.867655
C     9.278536    6.099375    6.870510
C    27.103304   14.729922    6.862413
C    24.253801   14.735058    6.864165
C    24.963295   15.967314    6.861845
C    26.392317   15.966155    6.862210
C     7.856072    3.626403    6.867369
C     9.281314    3.625528    6.870643
C    11.403952    7.332002    6.892184
C     9.986199    7.330902    6.867078
C     7.148676    7.330191    6.856394
C     7.856320    8.560627    6.868389
C     9.280234    8.561049    6.871477
C    24.966297   13.497502    6.870586
C    26.393891   13.495773    6.864832
C    28.521538   17.194025    6.863348
C    27.098990   17.194731    6.852260
C    24.254643   17.196404    6.850580
C    24.962214   18.423859    6.863308
C    26.391812   18.423636    6.862893
C     7.857436    1.165626    6.863736
C     9.285826    1.164679    6.866512
C    12.127038    1.151182    6.868680
C     5.019068    1.161180    6.864223
C    33.497379    1.167399    6.866714
C     3.591946    1.161293    6.864493
C    16.407318    1.149718    6.806004
C     0.755487    1.166975    6.865616
C    13.556392    1.147107    6.857479
C    17.838066    1.150773    6.806755
C    20.690706    1.151584    6.847781
C    29.231861    1.161143    6.867097
C    30.659547    1.161915    6.865818
C    24.964331    1.163617    6.865659
C    22.119859    1.153360    6.855588
C    26.393220    1.164396    6.865743
C     9.991254    2.391853    6.859488
C     7.149772    2.396128    6.854173
C     5.729493    2.397073    6.864138
C    14.270216    2.377497    6.839504
C     2.882364    2.397016    6.863645
C    11.411082    2.387905    6.874841
C    31.369570    2.397468    6.865501
C     1.461934    2.396834    6.854165
C    18.551874    2.381574    6.762127
C    32.790337    2.397247    6.855783
C    15.694930    2.377821    6.775017
C    22.834592    2.388424    6.850429
C    27.102126    2.395332    6.858543
C    19.978050    2.386023    6.833879
C    28.522640    2.396824    6.868512
C    24.257831    2.388691    6.852049
C    12.120068    3.620256    6.883614
C    33.497190    3.627220    6.866380
C     3.592286    3.632717    6.863673
C    16.406023    3.610775    6.761509
C    20.697014    3.623992    6.814253
C    30.659274    3.633405    6.866717
C     0.755230    3.626901    6.865017
C     5.019104    3.632783    6.863895
C    13.552222    3.619972    6.872755
C    17.836601    3.612753    6.764537
C    29.233081    3.632839    6.867984
C    24.971236    3.619875    6.868314
C    22.121562    3.619582    6.834981
C    26.397626    3.623583    6.871016
C    27.108788    4.863034    6.869234
C    31.365851    4.863492    6.856474
C     1.465009    4.863174    6.863809
C    14.266250    4.852963    6.852514
C    18.557457    4.855538    6.792203
C    22.834625    4.857380    6.825967
C    28.526397    4.863553    6.858078
C    32.786587    4.863336    6.867063
C     2.885867    4.863067    6.852772
C    11.407322    4.859609    6.872350
C    15.690671    4.852454    6.803298
C    19.984145    4.855856    6.770389
C    24.259519    4.857477    6.847941
C     5.726280    4.863203    6.854021
C    24.974717    6.099581    6.878145
C    29.233343    6.094135    6.868317
C    33.496531    6.099557    6.866669
C    16.408357    6.092488    6.821641
C    20.695005    6.089132    6.749016
C    26.399356    6.099214    6.875900
C    30.658887    6.094007    6.866944
C     0.755083    6.099676    6.865211
C    17.838553    6.095600    6.748800
C    22.121957    6.086739    6.812874
C     3.592705    6.093729    6.863188
C    12.118075    6.091220    6.876815
C    13.552080    6.092005    6.877501
C     5.019422    6.093784    6.863733
C    24.263174    7.328742    6.861253
C    22.837334    7.329474    6.809674
C    27.106074    7.330244    6.864963
C    31.368955    7.330346    6.866069
C    18.547159    7.325919    6.839229
C    28.523192    7.330526    6.870927
C    32.789426    7.330324    6.856266
C    15.693969    7.332170    6.816482
C    19.977228    7.329502    6.807238
C     1.461869    7.330101    6.853901
C    14.270547    7.332806    6.856209
C     2.882817    7.329914    6.862892
C     5.729884    7.329880    6.865079
C    24.974233    8.562319    6.886470
C    29.233448    8.567036    6.868561
C    22.125141    8.566126    6.831626
C    26.399005    8.562090    6.881168
C    20.689124    8.569286    6.795248
C    33.496532    8.560662    6.866858
C    16.405407    8.563304    6.810230
C    30.658769    8.566739    6.866776
C    17.832313    8.562946    6.811218
C     3.592915    8.566151    6.863490
C     0.754910    8.560428    6.865311
C    13.553149    8.573754    6.854002
C    12.118798    8.572574    6.873353
C     5.019359    8.566119    6.864178
C    27.108358    9.797919    6.875366
C    24.260485    9.802664    6.892492
C    22.837514    9.800526    6.891888
C    28.526439    9.797481    6.859127
C    18.546512    9.801982    6.882580
C    31.365786    9.797093    6.855588
C    19.981498    9.800356    6.888242
C    32.786030    9.796656    6.866856
C    15.689439    9.807527    6.786456
C     1.465157    9.796280    6.864158
C    14.263049    9.805119    6.809562
C     2.886035    9.796674    6.853318
C     5.727147    9.796529    6.854840
C     9.991798    9.800317    6.874470
C    11.410175    9.803787    6.863784
C     7.146626    9.796987    6.867116
C    24.971413   11.036902    6.883952
C    26.396313   11.035363    6.875723
C    29.232832   11.027401    6.866159
C    22.126475   11.037152    6.907456
C    16.402975   11.045303    6.812343
C    20.695853   11.034717    6.901792
C    33.496604   11.032775    6.866417
C    17.836433   11.045347    6.814531
C    30.658859   11.027196    6.864371
C     0.755057   11.032420    6.865551
C     3.592959   11.026549    6.864677
C    12.120695   11.036974    6.859156
C    13.549149   11.037881    6.838906
C     7.857382   11.033441    6.869035
C     5.020264   11.026857    6.865080
C     9.283224   11.034482    6.871116
C    27.102393   12.264136    6.857571
C    24.260989   12.270808    6.875250
C    22.841732   12.274388    6.903238
C    31.368611   12.262988    6.862763
C    19.981534   12.275702    6.933966
C    28.522243   12.263369    6.865862
C    14.265645   12.276372    6.859508
C    18.548147   12.276663    6.894073
C     1.461670   12.262945    6.855093
C    15.692685   12.277299    6.862310
C    32.789733   12.262858    6.854774
C     5.730426   12.262718    6.865565
C     9.992165   12.266422    6.860172
C     2.882951   12.262895    6.864694
C    11.411925   12.268260    6.867088
C     7.150902   12.263066    6.856483
C    29.231831   13.498934    6.863314
C    16.403879   13.511693    6.902322
C    20.696703   13.513623    6.899115
C    33.496682   13.493072    6.866355
C     3.592440   13.498634    6.865441
C    13.553844   13.508906    6.871083
C    17.834655   13.512502    6.911867
C    22.128708   13.512774    6.887617
C    30.659119   13.498610    6.862545
C     0.755094   13.493408    6.866381
C    12.126967   13.505632    6.868708
C     7.858573   13.493378    6.866374
C     5.020100   13.498559    6.865142
C     9.286293   13.494154    6.869207
C     9.997896   14.730486    6.867435
C    14.267056   14.738483    6.865457
C    18.550041   14.748494    6.885316
C    31.365886   14.728488    6.852786
C     1.464954   14.729088    6.866012
C     5.727063   14.727779    6.854219
C    11.419814   14.731641    6.857213
C    15.690591   14.742435    6.888250
C    19.982707   14.746231    6.868003
C    28.524990   14.729006    6.852007
C    32.786941   14.728973    6.865641
C     2.885695   14.728334    6.855649
C     7.148859   14.728251    6.864010
C    22.831878   14.737144    6.854676
C     7.859082   15.963804    6.863939
C    12.129703   15.961114    6.864509
C    16.405382   15.975467    6.875248
C    33.497203   15.964176    6.866274
C     3.592021   15.958107    6.866709
C     9.287916   15.964610    6.865869
C    13.559171   15.962485    6.868588
C    17.836321   15.978839    6.871923
C     0.755255   15.964345    6.866670
C     5.019721   15.957600    6.865818
C    20.692144   15.972157    6.860555
C    29.231354   15.958569    6.862856
C    30.659445   15.958049    6.862212
C    22.120851   15.968192    6.856387
C     7.152248   17.193429    6.853607
C     5.729903   17.193164    6.865171
C     9.995309   17.193157    6.854171
C    14.272833   17.195267    6.862564
C     1.461451   17.193738    6.856286
C    11.418171   17.193147    6.863008
C    15.695432   17.197056    6.851425
C    32.790569   17.193822    6.854536
C     2.882321   17.193543    6.866636
C    18.549987   17.200077    6.843651
C    31.369133   17.193654    6.862306
C    19.975730   17.200510    6.850133
C    22.832038   17.197686    6.858618
C     7.858640   18.422317    6.863792
C    12.129840   18.425860    6.861975
C     5.019950   18.429014    6.866045
C     9.287868   18.422030    6.865073
C     3.591864   18.429163    6.866626
C    16.407333   18.421746    6.847500
C    33.497313   18.423300    6.866503
C    13.559288   18.426108    6.859318
C     0.755816   18.423387    6.866536
C    20.689260   18.430252    6.850606
C    17.838441   18.421703    6.846081
C    30.659418   18.429359    6.863398
C    29.231039   18.429771    6.864455
C    22.118907   18.430150    6.857880
C     9.996891   19.655485    6.865672
C     7.148424   19.658211    6.863255
C     5.726524   19.659067    6.853979
C    11.420101   19.654607    6.855201
C     1.464755   19.658893    6.865313
C    14.268160   19.650419    6.837450
C     2.885681   19.659036    6.855023
C    15.693767   19.649551    6.834367
C    32.787670   19.659072    6.866518
C    18.553412   19.651360    6.832800
C    31.366157   19.659285    6.854806
C    19.979412   19.653972    6.830560
C    22.828531   19.655900    6.849928
C    27.102345   19.658579    6.864266
C    28.524978   19.658998    6.855012
C    24.251460   19.656201    6.862547
Li    0.032376   19.660893    4.972702
Li    0.032699   14.727296    4.972904
Li    0.032673    9.794811    4.971284
Li    0.032985    4.864540    4.971445
Li    4.308843   17.192725    4.973186
Li    4.308041   12.261393    4.970737
Li    4.307174    7.330361    4.969683
Li    4.307543    2.398429    4.969648
Li    8.575546    4.860042    4.980608
Li    8.576991    9.799968    4.980469
Li    8.583905   14.728121    4.970828
Li    8.583776   19.657674    4.970190
Li   12.854980   17.192949    4.969697
Li   12.839239   12.286572    4.977643
Li   12.845278    7.324398    4.998721
Li   12.840058    2.381995    4.979452
Li   17.134324   19.633074    4.942952
Li   17.120939   14.739540    4.992940
Li   17.162224    9.794606    4.955064
Li   17.128339    4.869120    4.927725
Li   21.417297   17.206427    4.966009
Li   21.418757   12.260624    5.008952
Li   21.407245    7.340444    4.937926
Li   21.420708    2.375629    4.950947
Li   25.670025   19.657320    4.969286
Li   25.676316   14.732757    4.972647
Li   25.679556    9.801877    4.989764
Li   25.693887    4.858106    4.980062
Li   29.929566   17.193103    4.967393
Li   29.931651   12.262845    4.968699
Li   29.935547    7.331190    4.973700
Li   29.931566    2.397634    4.971618
C    10.007869    4.864083    3.103951
C     7.156566    4.864454    3.083975
C     7.867652    6.100011    3.088525
C     9.296784    6.100332    3.100723
C    27.095322   14.727483    3.075425
C    24.243457   14.727965    3.088868
C    24.954783   15.963607    3.075943
C    26.383870   15.963646    3.073337
C     7.867625    3.628211    3.085376
C     9.296729    3.628457    3.092599
C    11.427091    7.330221    3.122054
C    10.004231    7.330050    3.119917
C     7.159784    7.330060    3.095721
C     7.867807    8.560045    3.088100
C     9.296857    8.559925    3.099278
C    24.954928   13.491855    3.092410
C    26.383991   13.491875    3.082590
C    28.514514   17.193901    3.073361
C    27.091999   17.193812    3.082525
C    24.246842   17.193815    3.081593
C    24.954858   18.423988    3.069986
C    26.383974   18.424033    3.072251
C     7.867594    1.168139    3.081663
C     9.296568    1.168285    3.082896
C    12.138841    1.161946    3.086666
C     5.025560    1.162359    3.081176
C    33.496393    1.168023    3.082871
C     3.597070    1.162050    3.081680
C    16.410745    1.167342    3.073512
C     0.755443    1.167956    3.083723
C    13.568316    1.161791    3.086930
C    17.840606    1.167420    3.068350
C    20.683014    1.161617    3.067564
C    29.226014    1.162622    3.080011
C    30.654737    1.162421    3.082059
C    24.955003    1.168295    3.077179
C    22.112972    1.161526    3.067216
C    26.384093    1.168285    3.078916
C    10.004473    2.398179    3.101321
C     7.159575    2.398488    3.093153
C     5.737082    2.398057    3.080705
C    14.279535    2.397635    3.096603
C     2.885579    2.398009    3.080642
C    11.427146    2.398170    3.095374
C    31.366100    2.398454    3.083080
C     1.463640    2.398026    3.093157
C    18.548666    2.397321    3.083351
C    32.788048    2.398179    3.093704
C    15.702523    2.397305    3.096257
C    22.824466    2.398037    3.076407
C    27.092171    2.398490    3.093442
C    19.971982    2.397538    3.074366
C    28.514601    2.398359    3.081511
C    24.247277    2.398146    3.093053
C    12.138273    3.634009    3.109626
C    33.496171    3.628276    3.081501
C     3.597167    3.633905    3.078486
C    16.410146    3.627406    3.078630
C    20.683177    3.633669    3.079289
C    30.654725    3.634189    3.082291
C     0.755556    3.628133    3.081483
C     5.025851    3.634085    3.078712
C    13.568159    3.633846    3.110405
C    17.840583    3.627480    3.070701
C    29.225906    3.634568    3.081989
C    24.955223    3.628417    3.090431
C    22.113147    3.633911    3.082138
C    26.384386    3.628344    3.086711
C    27.095684    4.864563    3.086964
C    31.362593    4.864321    3.092669
C     1.466792    4.864006    3.080267
C    14.275781    4.863821    3.124169
C    18.552056    4.863924    3.068660
C    22.821253    4.863933    3.099326
C    28.518295    4.864270    3.094381
C    32.784832    4.864074    3.080985
C     2.889027    4.864152    3.089181
C    11.430268    4.863969    3.127037
C    15.698536    4.863955    3.090295
C    19.975466    4.863791    3.085485
C    24.244158    4.864140    3.095363
C     5.734092    4.864160    3.089995
C    24.955386    6.100014    3.097266
C    29.225879    6.094349    3.082885
C    33.496065    6.100117    3.080234
C    16.409924    6.100714    3.085314
C    20.683379    6.093978    3.072477
C    26.384750    6.100055    3.092520
C    30.654688    6.094273    3.081735
C     0.755584    6.099913    3.079838
C    17.840756    6.100405    3.071371
C    22.113561    6.094021    3.079141
C     3.597212    6.094133    3.076809
C    12.138179    6.093940    3.124785
C    13.568036    6.094023    3.124841
C     5.026084    6.094198    3.077636
C    24.247859    7.330080    3.107164
C    22.825109    7.330059    3.083521
C    27.092389    7.330259    3.102379
C    31.365732    7.330066    3.081636
C    18.549003    7.330301    3.086201
C    28.514705    7.330073    3.085184
C    32.788027    7.329996    3.091602
C    15.702417    7.330447    3.119155
C    19.972246    7.330270    3.071396
C     1.463694    7.330024    3.090040
C    14.279282    7.330287    3.125418
C     2.885935    7.330036    3.077455
C     5.737336    7.330078    3.079530
C    24.955416    8.560199    3.101457
C    29.225891    8.565838    3.082775
C    22.113817    8.566978    3.085454
C    26.384605    8.560135    3.096237
C    20.683600    8.566788    3.080697
C    33.496113    8.560076    3.080110
C    16.410363    8.560459    3.102899
C    30.654604    8.565824    3.080827
C    17.841038    8.560242    3.086396
C     3.597240    8.565991    3.077576
C     0.755534    8.560142    3.080293
C    13.568144    8.566351    3.129647
C    12.138366    8.566162    3.125155
C     5.026116    8.565854    3.078351
C    27.095491    9.795828    3.091258
C    24.244284    9.796280    3.106168
C    22.821537    9.796393    3.116677
C    28.517907    9.795879    3.094742
C    18.552870    9.796854    3.093591
C    31.362481    9.795847    3.090823
C    19.975920    9.796762    3.109915
C    32.784723    9.795969    3.080095
C    15.699319    9.796498    3.115350
C     1.466811    9.796059    3.081447
C    14.276244    9.796332    3.136843
C     2.889090    9.795910    3.090689
C     5.734262    9.795915    3.090961
C    10.008141    9.795931    3.100784
C    11.430596    9.796233    3.124573
C     7.156718    9.795616    3.083925
C    24.955160   11.032106    3.103125
C    26.384337   11.031937    3.092461
C    29.225804   11.025637    3.079517
C    22.113387   11.026559    3.119606
C    16.410615   11.032905    3.111869
C    20.683725   11.026741    3.121458
C    33.496076   11.031746    3.081134
C    17.841139   11.033366    3.108078
C    30.654564   11.025870    3.079020
C     0.755531   11.031820    3.082356
C     3.597211   11.026103    3.080164
C    12.138720   11.025952    3.107274
C    13.568415   11.026055    3.116688
C     7.867936   11.031763    3.083753
C     5.026101   11.025902    3.079931
C     9.297014   11.031449    3.089034
C    27.092176   12.261560    3.094998
C    24.247410   12.262182    3.117346
C    22.824462   12.262500    3.119867
C    31.365898   12.261641    3.079562
C    19.972253   12.262879    3.131683
C    28.514548   12.261713    3.078666
C    14.279625   12.262248    3.109574
C    18.549158   12.262948    3.135674
C     1.463626   12.261976    3.094334
C    15.702595   12.262514    3.126594
C    32.787913   12.261884    3.092106
C     5.737347   12.261829    3.081078
C    10.004869   12.261679    3.096250
C     2.885762   12.261863    3.082230
C    11.427602   12.261704    3.090547
C     7.159924   12.261370    3.091940
C    29.225978   13.497429    3.075794
C    16.410752   13.492367    3.114001
C    20.683445   13.498678    3.129751
C    33.496294   13.491859    3.082347
C     3.597227   13.497815    3.082969
C    13.568617   13.498124    3.093680
C    17.840764   13.492582    3.121989
C    22.112974   13.498525    3.120043
C    30.654563   13.497614    3.077784
C     0.755517   13.492002    3.084282
C    12.138897   13.497983    3.084377
C     7.867931   13.491744    3.079757
C     5.025903   13.497557    3.081741
C     9.296939   13.491439    3.079424
C    10.008331   14.727637    3.077347
C    14.276536   14.728212    3.101334
C    18.552074   14.728413    3.115487
C    31.362917   14.727610    3.090069
C     1.466951   14.727848    3.086100
C     5.734133   14.727782    3.093039
C    11.430896   14.727753    3.088743
C    15.699668   14.728112    3.100336
C    19.975205   14.728739    3.128836
C    28.517725   14.727753    3.084975
C    32.784783   14.727796    3.081757
C     2.888799   14.727841    3.096301
C     7.156515   14.727402    3.080247
C    22.820914   14.728394    3.111168
C     7.867915   15.963440    3.079058
C    12.139127   15.957893    3.075978
C    16.410952   15.963654    3.090080
C    33.496406   15.963786    3.083437
C     3.597050   15.957798    3.085039
C     9.296862   15.963397    3.076503
C    13.568638   15.957864    3.078811
C    17.840754   15.963865    3.095615
C     0.755497   15.963724    3.085614
C     5.025768   15.957641    3.083468
C    20.682992   15.958164    3.095725
C    29.226016   15.957797    3.074124
C    30.654729   15.957989    3.078045
C    22.112777   15.957879    3.087657
C     7.159537   17.193626    3.091508
C     5.737109   17.193641    3.083190
C    10.005119   17.193662    3.086421
C    14.279765   17.193564    3.074581
C     1.463687   17.193680    3.097028
C    11.427947   17.193467    3.074570
C    15.702899   17.193434    3.085472
C    32.788173   17.193775    3.093925
C     2.885528   17.193728    3.085653
C    18.548840   17.193565    3.089843
C    31.366160   17.193769    3.080692
C    19.972027   17.193689    3.080065
C    22.823893   17.193749    3.071318
C     7.867657   18.423766    3.079354
C    12.139131   18.429425    3.075464
C     5.025663   18.429619    3.083333
C     9.296880   18.423742    3.077178
C     3.596916   18.429570    3.084741
C    16.410647   18.423032    3.064575
C    33.496440   18.423785    3.083652
C    13.568705   18.429348    3.073425
C     0.755460   18.423838    3.085374
C    20.682843   18.429306    3.067489
C    17.840982   18.423041    3.063601
C    30.654760   18.429755    3.079923
C    29.226041   18.429895    3.076157
C    22.112761   18.429361    3.065811
C    10.008210   19.659697    3.079724
C     7.156115   19.659909    3.080842
C     5.733906   19.659576    3.092979
C    11.430830   19.659463    3.090429
C     1.466916   19.659690    3.085268
C    14.276604   19.659212    3.086740
C     2.888652   19.659603    3.095296
C    15.699581   19.659186    3.069122
C    32.784851   19.659829    3.082842
C    18.551935   19.659135    3.062708
C    31.362933   19.660009    3.092842
C    19.975075   19.659060    3.075295
C    22.820879   19.659402    3.076823
C    27.095415   19.660071    3.075704
C    28.517740   19.660005    3.088191
C    24.243679   19.659712    3.070893
