556       
Geometry optimisation iteration:    12
Li   13.139008    2.343590    8.814124
Li   10.673701    0.905231    8.820372
Li   10.840049    6.265390    8.820463
Li   10.732166    3.615325    8.858062
Li    8.372176    4.884513    8.834283
Li    7.995809    2.017760    8.912375
Li   13.635863    5.251489    8.940951
Li   11.998430    4.130849   11.099088
Li    9.682271    2.878946   11.117185
Li   12.132491    1.189424   11.549949
Li    9.590669    5.790227   11.585594
Li   10.975039    3.473463   14.261414
C    10.010205    4.866546    6.874750
C     7.137625    4.867177    6.863949
C     7.855998    6.111841    6.873225
C     9.289963    6.113356    6.901810
C    27.094387   14.727970    6.854631
C    24.243926   14.728290    6.856534
C    24.954734   15.964076    6.855771
C    26.383837   15.963781    6.855123
C     7.856076    3.624230    6.888176
C     9.291946    3.626341    6.853249
C    11.433228    7.349541    6.862145
C    10.003563    7.347800    6.869941
C     7.149390    7.340252    6.845641
C     7.861986    8.571702    6.854626
C     9.292689    8.574573    6.862692
C    24.954844   13.492396    6.856211
C    26.383806   13.492289    6.855500
C    28.513352   17.193215    6.857051
C    27.091031   17.193518    6.844116
C    24.247510   17.193959    6.845133
C    24.954940   18.423760    6.856888
C    26.383703   18.423535    6.856174
C     7.853302    1.151202    6.835494
C     9.288852    1.154715    6.887715
C    12.149518    1.146129    6.892391
C     5.013010    1.157734    6.831024
C    33.493003    1.166801    6.860180
C     3.588666    1.159777    6.844163
C    16.424908    1.164385    6.840023
C     0.750968    1.166642    6.858556
C    13.584187    1.147305    6.858703
C    17.850274    1.166190    6.849992
C    20.688362    1.161973    6.859483
C    29.224521    1.161304    6.859204
C    30.652989    1.161020    6.858913
C    24.955112    1.168184    6.859144
C    22.115405    1.162360    6.860302
C    26.383559    1.167943    6.858351
C    10.004972    2.390019    6.852919
C     7.140119    2.391301    6.834961
C     5.720334    2.393781    6.838188
C    14.302924    2.392527    6.846408
C     2.876351    2.396395    6.849471
C    11.429482    2.393131    6.868262
C    31.363902    2.397130    6.858848
C     1.458092    2.397109    6.844800
C    18.559499    2.396888    6.840906
C    32.784975    2.396861    6.847826
C    15.721457    2.393880    6.825416
C    22.826630    2.398561    6.860654
C    27.091193    2.398060    6.847528
C    19.977656    2.398215    6.858918
C    28.513298    2.397652    6.859809
C    24.247740    2.398634    6.848874
C    12.147070    3.632261    6.853514
C    33.492898    3.627189    6.859395
C     3.587365    3.633727    6.846873
C    16.430247    3.627570    6.834701
C    20.688955    3.634658    6.860114
C    30.652970    3.633377    6.859504
C     0.750138    3.627385    6.857791
C     5.009638    3.633456    6.840979
C    13.583168    3.635897    6.878630
C    17.852234    3.627993    6.847486
C    29.224509    3.633809    6.860238
C    24.955186    3.628751    6.860842
C    22.115370    3.634890    6.861767
C    26.383648    3.628444    6.859911
C    27.094796    4.864510    6.859505
C    31.360392    4.863417    6.847465
C     1.461806    4.863709    6.856304
C    14.298185    4.868652    6.820787
C    18.562997    4.865385    6.851791
C    22.823025    4.865252    6.850068
C    28.516903    4.864098    6.848203
C    32.781499    4.863430    6.859030
C     2.880094    4.864919    6.838796
C    11.434617    4.869491    6.851225
C    15.718458    4.867296    6.830105
C    19.981061    4.864920    6.847230
C    24.244078    4.864975    6.861810
C     5.719303    4.866813    6.836025
C    24.955114    6.101233    6.861424
C    29.224605    6.094127    6.860078
C    33.492866    6.099551    6.859284
C    16.425798    6.103769    6.828783
C    20.688042    6.095403    6.859731
C    26.383678    6.100805    6.860606
C    30.652964    6.093818    6.859134
C     0.750969    6.099945    6.858018
C    17.850294    6.102017    6.845692
C    22.115041    6.095338    6.861514
C     3.589631    6.095236    6.848379
C    12.149856    6.104164    6.879980
C    13.584661    6.108833    6.833465
C     5.015133    6.096422    6.844861
C    24.247706    7.331091    6.849706
C    22.825935    7.331441    6.861210
C    27.091212    7.330726    6.848570
C    31.363750    7.329558    6.858826
C    18.555946    7.333011    6.841084
C    28.513483    7.330248    6.860570
C    32.785450    7.329687    6.847548
C    15.714546    7.339362    6.817478
C    19.975895    7.331422    6.858993
C     1.459513    7.330061    6.845207
C    14.294522    7.343865    6.833844
C     2.879938    7.331845    6.852955
C     5.729676    7.336814    6.847643
C    24.955049    8.561106    6.860586
C    29.224330    8.566253    6.860646
C    22.114661    8.567225    6.861730
C    26.383795    8.560790    6.859887
C    20.686304    8.567891    6.860840
C    33.493266    8.559424    6.859734
C    16.418619    8.565702    6.844245
C    30.653149    8.565811    6.859911
C    17.847210    8.563478    6.852864
C     3.591944    8.568487    6.853774
C     0.752414    8.560429    6.858453
C    13.577520    8.581209    6.842095
C    12.145455    8.582314    6.849652
C     5.020402    8.570493    6.851134
C    27.094535    9.796604    6.858885
C    24.244051    9.796886    6.860766
C    22.821689    9.797285    6.849614
C    28.516921    9.796295    6.848012
C    18.556222    9.798240    6.859509
C    31.360552    9.795681    6.847954
C    19.978139    9.797497    6.849220
C    32.782784    9.795704    6.860072
C    15.706153    9.802734    6.848818
C     1.463963    9.796208    6.858084
C    14.283765    9.804318    6.834195
C     2.885879    9.797394    6.845505
C     5.729190    9.801147    6.841741
C    10.007737    9.806406    6.850985
C    11.432980    9.806848    6.836104
C     7.151499    9.802089    6.852176
C    24.954736   11.032689    6.859525
C    26.383909   11.032519    6.858823
C    29.224132   11.026059    6.859240
C    22.114005   11.026775    6.860952
C    16.415861   11.034965    6.858038
C    20.685271   11.027408    6.860494
C    33.493907   11.031333    6.860838
C    17.844660   11.034295    6.860276
C    30.653238   11.025767    6.858821
C     0.753561   11.032051    6.859949
C     3.593957   11.027458    6.858365
C    12.143078   11.032226    6.850855
C    13.572205   11.032860    6.851774
C     7.865748   11.037532    6.854661
C     5.022615   11.028137    6.858176
C     9.294436   11.037723    6.853405
C    27.091038   12.262262    6.845739
C    24.247276   12.262530    6.846840
C    22.824985   12.262728    6.859520
C    31.364025   12.261470    6.858458
C    19.974250   12.262754    6.859937
C    28.513368   12.261951    6.858516
C    14.284782   12.263927    6.858684
C    18.551894   12.262454    6.848859
C     1.461211   12.261509    6.848198
C    15.707029   12.263747    6.848326
C    32.786417   12.261366    6.848594
C     5.734781   12.263213    6.859025
C    10.006431   12.264687    6.844287
C     2.883438   12.261940    6.859363
C    11.428474   12.264632    6.855447
C     7.157132   12.263310    6.846631
C    29.224036   13.497807    6.858219
C    16.415224   13.491379    6.860623
C    20.685100   13.498204    6.860153
C    33.494176   13.491094    6.860901
C     3.594428   13.497114    6.860002
C    13.572071   13.497176    6.859766
C    17.844384   13.491725    6.860324
C    22.113997   13.498458    6.859971
C    30.653170   13.497497    6.858476
C     0.753764   13.491047    6.860438
C    12.143011   13.496885    6.858648
C     7.866964   13.490836    6.858495
C     5.023782   13.497187    6.861044
C     9.296057   13.490811    6.858536
C    10.010579   14.722928    6.855558
C    14.282121   14.724544    6.847293
C    18.555674   14.726892    6.860545
C    31.360745   14.727293    6.847027
C     1.464542   14.726415    6.859972
C     5.731654   14.724857    6.848178
C    11.432729   14.722872    6.844112
C    15.704418   14.725091    6.859183
C    19.977938   14.727722    6.848504
C    28.516782   14.727724    6.844910
C    32.783078   14.726863    6.860347
C     2.886796   14.726421    6.848628
C     7.154061   14.724160    6.857846
C    22.821593   14.728233    6.846658
C     7.866247   15.955248    6.851586
C    12.144722   15.949645    6.851664
C    16.416654   15.960249    6.858964
C    33.494037   15.962814    6.861228
C     3.593904   15.954684    6.859545
C     9.295606   15.955498    6.850469
C    13.573402   15.950010    6.854989
C    17.845313   15.961428    6.860038
C     0.753554   15.961865    6.860949
C     5.022589   15.953792    6.858445
C    20.685648   15.957223    6.858954
C    29.224099   15.957358    6.857175
C    30.653218   15.957157    6.857559
C    22.114306   15.958173    6.858641
C     7.154479   17.183971    6.834561
C     5.732172   17.186114    6.849985
C    10.005565   17.180280    6.832016
C    14.287999   17.185311    6.852123
C     1.460663   17.191738    6.848073
C    11.431302   17.180689    6.845760
C    15.710286   17.187042    6.842117
C    32.786286   17.192291    6.847993
C     2.882351   17.190739    6.858401
C    18.553540   17.191532    6.846984
C    31.363943   17.192776    6.857519
C    19.975362   17.192878    6.858651
C    22.825378   17.193643    6.857787
C     7.860520   18.406878    6.840706
C    12.146627   18.411855    6.854154
C     5.019738   18.423374    6.845505
C     9.292568   18.404487    6.846547
C     3.591279   18.425688    6.852544
C    16.419337   18.417858    6.850002
C    33.493437   18.422296    6.859774
C    13.577530   18.415368    6.849862
C     0.752483   18.421420    6.859246
C    20.686836   18.428784    6.859019
C    17.847637   18.420334    6.855282
C    30.653120   18.428632    6.857999
C    29.224296   18.429064    6.858001
C    22.115058   18.429905    6.859189
C    10.005423   19.636470    6.857864
C     7.143505   19.644155    6.833567
C     5.724056   19.649769    6.818729
C    11.435895   19.638874    6.856127
C     1.462935   19.657931    6.857318
C    14.290648   19.646695    6.836955
C     2.882774   19.656263    6.839832
C    15.710182   19.651088    6.842416
C    32.782173   19.658116    6.859448
C    18.559761   19.657228    6.855693
C    31.360425   19.658661    6.847100
C    19.979992   19.659233    6.847391
C    22.822619   19.659697    6.847681
C    27.094526   19.659413    6.856633
C    28.516825   19.659082    6.846227
C    24.244327   19.659901    6.858616
Li    0.030658   19.664792    4.972424
Li    0.033677   14.732024    4.972730
Li    0.033141    9.798747    4.972094
Li    0.030294    4.867072    4.972089
Li    4.306530   17.189951    4.971314
Li    4.309133   12.269082    4.972128
Li    4.305406    7.337591    4.967053
Li    4.288813    2.404612    4.964650
Li    8.591600    4.873978    4.996680
Li    8.580774    9.808682    4.968585
Li    8.583470   14.727881    4.968896
Li    8.581118   19.632889    4.978279
Li   12.872451   17.180223    4.967779
Li   12.868159   12.269815    4.968313
Li   12.869235    7.369227    4.976838
Li   12.861511    2.400168    4.993702
Li   17.147564   19.658526    4.966990
Li   17.138839   14.730127    4.971441
Li   17.142432    9.806486    4.970236
Li   17.164713    4.867697    4.963863
Li   21.403627   17.198328    4.969106
Li   21.403094   12.267254    4.970586
Li   21.408031    7.334794    4.972797
Li   21.408170    2.402896    4.972509
Li   25.664203   19.665447    4.969257
Li   25.663871   14.732847    4.965992
Li   25.664028    9.799552    4.971177
Li   25.664402    4.867960    4.973502
Li   29.928832   17.197916    4.969207
Li   29.928649   12.266602    4.970091
Li   29.928814    7.334586    4.972810
Li   29.928671    2.402139    4.972716
C    10.009916    4.864360    3.127587
C     7.157375    4.864139    3.110764
C     7.868510    6.100331    3.107830
C     9.298377    6.100649    3.116199
C    27.094062   14.728087    3.075016
C    24.241997   14.728058    3.074539
C    24.953731   15.964147    3.073576
C    26.382292   15.964169    3.074098
C     7.868558    3.627827    3.120124
C     9.298175    3.627814    3.129573
C    11.428886    7.331244    3.107567
C    10.006170    7.331108    3.118792
C     7.160366    7.330413    3.105377
C     7.868253    8.560515    3.088482
C     9.297917    8.560806    3.093379
C    24.953735   13.492080    3.074947
C    26.382231   13.492124    3.075572
C    28.512820   17.194396    3.075687
C    27.090764   17.194377    3.085974
C    24.245476   17.194221    3.085946
C    24.953848   18.424293    3.075714
C    26.382438   18.424424    3.076123
C     7.867915    1.167473    3.112907
C     9.297628    1.167541    3.120011
C    12.139700    1.161835    3.121181
C     5.025920    1.161918    3.091495
C    33.494866    1.168407    3.080035
C     3.596472    1.161817    3.082365
C    16.411560    1.168099    3.089052
C     0.754524    1.168283    3.080339
C    13.569418    1.161953    3.112649
C    17.841089    1.167952    3.079666
C    20.683129    1.162365    3.078317
C    29.224511    1.162769    3.079118
C    30.653127    1.162860    3.080785
C    24.953808    1.168455    3.077185
C    22.111932    1.162340    3.078093
C    26.382627    1.168581    3.077745
C    10.005699    2.397499    3.142462
C     7.160108    2.397784    3.125277
C     5.737348    2.397934    3.099177
C    14.280801    2.398235    3.113966
C     2.884984    2.398305    3.079088
C    11.428228    2.398076    3.131153
C    31.364435    2.398499    3.081644
C     1.462448    2.398370    3.090212
C    18.549408    2.398116    3.090160
C    32.786651    2.398517    3.091881
C    15.703939    2.398208    3.110989
C    22.823429    2.398236    3.078401
C    27.090714    2.398398    3.090119
C    19.972001    2.398093    3.078868
C    28.513014    2.398504    3.079313
C    24.245724    2.398282    3.089714
C    12.139829    3.634693    3.131180
C    33.494761    3.628451    3.079764
C     3.596452    3.634472    3.080462
C    16.411848    3.628256    3.093552
C    20.683228    3.633949    3.078433
C    30.653174    3.634254    3.081080
C     0.754417    3.628517    3.079586
C     5.026279    3.634245    3.091144
C    13.569561    3.634792    3.122008
C    17.841495    3.628004    3.080241
C    29.224451    3.634208    3.080142
C    24.953872    3.628280    3.079826
C    22.112117    3.634061    3.078941
C    26.382626    3.628373    3.080473
C    27.094089    4.863986    3.081306
C    31.361205    4.864164    3.092250
C     1.465784    4.864357    3.079807
C    14.278007    4.864848    3.126317
C    18.553079    4.864022    3.076554
C    22.820101    4.863955    3.090948
C    28.516363    4.864072    3.092058
C    32.783351    4.864213    3.080087
C     2.888415    4.864383    3.090980
C    11.432397    4.865040    3.141689
C    15.700770    4.864483    3.101165
C    19.975481    4.864067    3.088629
C    24.242385    4.863999    3.080457
C     5.734237    4.864260    3.107473
C    24.953862    6.099688    3.080568
C    29.224506    6.093795    3.080975
C    33.494852    6.100133    3.079879
C    16.412101    6.100407    3.090791
C    20.683386    6.094084    3.079542
C    26.382614    6.099661    3.081080
C    30.653129    6.093954    3.081934
C     0.754510    6.100155    3.079653
C    17.841589    6.100540    3.080048
C    22.112044    6.094023    3.079998
C     3.596782    6.094524    3.080166
C    12.140358    6.095076    3.118927
C    13.569997    6.095075    3.111779
C     5.026312    6.094217    3.086612
C    24.245648    7.329770    3.091575
C    22.823548    7.329687    3.079839
C    27.090880    7.329602    3.091811
C    31.364545    7.329726    3.082557
C    18.549547    7.330121    3.091113
C    28.512860    7.329551    3.080443
C    32.786633    7.329899    3.092642
C    15.704359    7.330738    3.103165
C    19.972049    7.330075    3.080236
C     1.462810    7.330294    3.090350
C    14.281432    7.330985    3.096777
C     2.885442    7.330178    3.078520
C     5.737591    7.330361    3.085963
C    24.953860    8.559653    3.080154
C    29.224530    8.565525    3.080114
C    22.111949    8.565868    3.079417
C    26.382465    8.559698    3.080644
C    20.683130    8.565729    3.079587
C    33.495104    8.560054    3.081149
C    16.412052    8.560554    3.085252
C    30.653164    8.565528    3.081489
C    17.841255    8.560467    3.080788
C     3.596922    8.566501    3.077684
C     0.754747    8.560169    3.080721
C    13.570021    8.567396    3.088462
C    12.140085    8.567490    3.092130
C     5.026214    8.566315    3.079222
C    27.094065    9.795501    3.079989
C    24.242173    9.795729    3.079443
C    22.819988    9.795778    3.090334
C    28.516099    9.795489    3.090917
C    18.552394    9.795981    3.077800
C    31.361431    9.795664    3.092550
C    19.974969    9.796119    3.089721
C    32.783623    9.795842    3.081499
C    15.700788    9.796693    3.083070
C     1.466243    9.796374    3.081362
C    14.277954    9.797195    3.094246
C     2.888880    9.796344    3.090519
C     5.734064    9.796577    3.089762
C    10.009084    9.796865    3.084975
C    11.432053    9.797387    3.096885
C     7.156966    9.796425    3.080309
C    24.953757   11.031614    3.077932
C    26.382331   11.031631    3.078531
C    29.224633   11.025714    3.079196
C    22.111689   11.026046    3.078981
C    16.411583   11.032278    3.078252
C    20.682753   11.025971    3.078862
C    33.495254   11.032003    3.081773
C    17.840958   11.032272    3.076939
C    30.653174   11.025815    3.080904
C     0.755125   11.032079    3.081956
C     3.596860   11.026564    3.079493
C    12.140055   11.026966    3.080147
C    13.569711   11.026778    3.078879
C     7.868048   11.032314    3.076596
C     5.026132   11.026452    3.078507
C     9.297840   11.032537    3.077746
C    27.090774   12.261787    3.088092
C    24.245326   12.261894    3.087819
C    22.823196   12.261848    3.077464
C    31.364879   12.261858    3.081647
C    19.971352   12.262009    3.078863
C    28.512730   12.261809    3.077527
C    14.280794   12.262373    3.075316
C    18.548724   12.262011    3.088463
C     1.463210   12.262200    3.093195
C    15.703545   12.262288    3.087589
C    32.787103   12.261992    3.093401
C     5.737291   12.262230    3.077610
C    10.005871   12.262290    3.086833
C     2.885692   12.262130    3.080775
C    11.428899   12.262477    3.077140
C     7.160087   12.262202    3.086723
C    29.224600   13.497882    3.077182
C    16.411476   13.492145    3.076855
C    20.682564   13.497811    3.078013
C    33.495508   13.492034    3.082156
C     3.596921   13.497990    3.079501
C    13.569542   13.497960    3.073308
C    17.840576   13.491999    3.077120
C    22.111595   13.497891    3.077261
C    30.653216   13.497874    3.079506
C     0.755182   13.492181    3.082680
C    12.140023   13.497856    3.074426
C     7.868175   13.492057    3.075388
C     5.026114   13.497922    3.078154
C     9.297735   13.492084    3.075186
C    10.009033   14.727523    3.077267
C    14.277578   14.727656    3.084977
C    18.551926   14.727824    3.076826
C    31.361687   14.728044    3.090913
C     1.466427   14.727819    3.082421
C     5.734055   14.727699    3.089570
C    11.432035   14.727564    3.087032
C    15.700311   14.727650    3.076632
C    19.974549   14.727805    3.088617
C    28.516003   14.728184    3.087197
C    32.783814   14.728022    3.081082
C     2.888948   14.727922    3.091747
C     7.156899   14.727605    3.078143
C    22.819760   14.727974    3.086954
C     7.868016   15.963277    3.081291
C    12.139945   15.957338    3.078326
C    16.411355   15.963415    3.076904
C    33.495415   15.963829    3.081074
C     3.596812   15.957566    3.079869
C     9.297800   15.963196    3.081672
C    13.569633   15.957418    3.075286
C    17.840640   15.963456    3.076396
C     0.755153   15.963835    3.081569
C     5.026049   15.957633    3.080308
C    20.682615   15.957987    3.077214
C    29.224627   15.958310    3.076481
C    30.653203   15.958332    3.078940
C    22.111625   15.957996    3.076449
C     7.159842   17.192881    3.097548
C     5.737072   17.193153    3.084750
C    10.005873   17.192732    3.099949
C    14.280811   17.193287    3.079395
C     1.463030   17.193574    3.092424
C    11.428810   17.192935    3.088114
C    15.703626   17.193251    3.089481
C    32.787001   17.194058    3.092127
C     2.885520   17.193717    3.081142
C    18.548698   17.193599    3.087103
C    31.364793   17.194135    3.080270
C    19.971392   17.193581    3.077096
C    22.823240   17.194022    3.075673
C     7.867817   18.422763    3.092918
C    12.139899   18.428987    3.096933
C     5.025878   18.429381    3.086893
C     9.297710   18.422557    3.095984
C     3.596586   18.429226    3.082978
C    16.411473   18.423592    3.080254
C    33.495169   18.423948    3.080756
C    13.569589   18.429296    3.090566
C     0.754771   18.423949    3.081766
C    20.682853   18.429788    3.076495
C    17.840707   18.423398    3.076096
C    30.653218   18.430276    3.079206
C    29.224531   18.430318    3.077021
C    22.111813   18.429829    3.076440
C    10.009155   19.658758    3.109981
C     7.156522   19.659095    3.100258
C     5.733615   19.659143    3.104899
C    11.431848   19.658827    3.122951
C     1.465929   19.659664    3.081878
C    14.277506   19.659350    3.109303
C     2.888464   19.659625    3.093630
C    15.700304   19.659476    3.089418
C    32.783449   19.660137    3.080348
C    18.552333   19.659767    3.076003
C    31.361336   19.660246    3.091331
C    19.974960   19.659699    3.087655
C    22.820103   19.660030    3.088090
C    27.094142   19.660277    3.077401
C    28.516134   19.660404    3.088931
C    24.242272   19.660085    3.076794
