536       
Geometry optimisation iteration:    28
Li   10.802249    3.609188    8.509411
Li    2.137883    3.596953    8.561139
Li    6.476311    6.655111    8.638846
Li    8.053761    4.391492    8.728959
Li    8.585807    9.740274    8.552373
Li    4.334693    9.758671    8.580222
Li    5.032390    4.164059    8.880515
Li    6.489938    1.233497    8.605829
Li    9.973470    6.743510    8.845904
Li    3.366241    6.771606    8.884151
Li    4.316090    2.134124   11.069146
Li    8.821633    2.794818   10.956399
Li    8.122228    5.854816   10.953512
Li    5.164851    5.949665   10.918892
Li    6.439393    3.771169   11.295740
Li    6.460077    8.287003   10.815624
Li    2.874316    4.847059   11.449735
Li   10.811450    5.135012   11.392897
Li    3.475300    8.166513   11.965864
Li    9.467425    8.309655   11.927597
Li    6.901915    1.101375   12.909940
Li    8.345959    4.157453   13.551139
Li    5.013180    3.870251   13.632930
Li    6.415673    6.696205   13.341633
C     9.294837    3.625847    3.427031
C    10.717528    3.625838    3.417145
C     8.581825    4.859069    3.431092
C     7.159178    4.859108    3.439681
C    11.430388    4.859066    3.411925
C     9.294865    6.092264    3.426755
C    10.717624    6.092345    3.417749
C     8.581822    7.325478    3.431202
C     7.159233    7.325428    3.437137
C    26.379416   13.489953    3.354654
C    27.802267   13.489943    3.358004
C    25.666413   14.722957    3.349218
C    24.243546   14.722960    3.353101
C    28.515312   14.722946    3.356614
C    26.379428   15.956045    3.349778
C    27.802259   15.955994    3.352777
C    25.666357   17.189051    3.354001
C    24.243500   17.189039    3.358064
C     8.581886    2.392703    3.432519
C     7.159248    2.392645    3.440160
C    11.430317    2.392557    3.415366
C     6.446126    3.625867    3.444459
C    13.565711    3.625808    3.403990
C    12.853076    4.859096    3.404054
C     6.446163    6.092233    3.443057
C    13.565676    6.092312    3.402344
C    11.430449    7.325530    3.416514
C    12.853073    7.325458    3.408301
C     9.294888    8.558671    3.431052
C    10.717628    8.558637    3.424824
C     6.446222    8.558580    3.442152
C    25.666365   12.256901    3.363073
C    24.243534   12.256941    3.365612
C    28.515243   12.256984    3.371621
C    23.530601   13.489929    3.360084
C    30.651094   13.489985    3.376624
C    29.938094   14.722929    3.365128
C    23.530602   15.956038    3.356752
C    30.651181   15.955928    3.370076
C    28.515276   17.188982    3.361125
C    29.938066   17.188900    3.369042
C    26.379317   18.422001    3.363841
C    27.802160   18.421983    3.367015
C    23.530577   18.422064    3.369648
C     6.446321    1.159546    3.441462
C     9.294935    1.159576    3.429870
C    10.717560    1.159571    3.422194
C     4.310648    2.392535    3.449020
C    12.853059    2.392734    3.409616
C     5.023664    3.625806    3.450897
C    14.988356    3.626007    3.403003
C     4.310540    4.859054    3.456226
C    15.700906    4.859116    3.401603
C     5.023615    6.092226    3.452402
C    14.988316    6.092268    3.400125
C     4.310446    7.325440    3.455361
C    13.565594    8.558653    3.410864
C     5.023618    8.558671    3.449804
C     8.581946    9.791775    3.436591
C    11.430378    9.791791    3.426922
C     7.159341    9.791784    3.440814
C    23.530584   11.023907    3.378904
C    26.379274   11.023984    3.377109
C    27.802093   11.024022    3.381229
C    21.394889   12.257002    3.381464
C    29.937964   12.257009    3.380693
C    22.107723   13.489999    3.370584
C    32.073740   13.490069    3.388951
C    21.394883   14.722992    3.374732
C    32.786869   14.723006    3.389123
C    22.107784   15.956025    3.368747
C    32.073840   15.955886    3.380952
C    21.394980   17.188982    3.379562
C    30.651003   18.421866    3.382696
C    22.107814   18.421973    3.379857
C    25.666295   19.654998    3.375932
C    28.515123   19.654917    3.383436
C    24.243478   19.654992    3.378413
C    13.565598    1.159618    3.414877
C     5.023858    1.159457    3.443229
C    26.379226    1.160271    3.391436
C    27.802018    1.160266    3.394955
C    23.530546    1.160350    3.393014
C    22.107750    1.160239    3.398631
C     2.888024    2.392549    3.447548
C    15.700944    2.392850    3.408969
C     2.887890    4.859085    3.459815
C    17.123593    4.859142    3.405621
C    17.836309    6.092244    3.407335
C    17.123641    7.325269    3.404710
C    15.700884    7.325411    3.402823
C    14.988275    8.558424    3.406833
C    28.514972    9.791143    3.399884
C    24.243465    9.791072    3.390735
C    25.666266    9.791041    3.390505
C    21.394867    9.791125    3.396930
C    12.853034    9.791587    3.419946
C     4.310527    9.791841    3.451138
C    30.650809   11.024097    3.399618
C    22.107759   11.024019    3.385121
C     9.294906   11.024800    3.438122
C    10.717529   11.024728    3.434032
C     6.446304   11.024847    3.443759
C     5.023784   11.024866    3.446445
C    19.972075   12.257176    3.393561
C    32.786599   12.257211    3.406194
C    19.972134   14.723045    3.391265
C     0.040184   14.723079    3.401222
C     0.753334   15.955892    3.403649
C     0.040154   17.188801    3.399315
C    32.786872   17.188822    3.389434
C    32.073678   18.421804    3.391437
C    11.430301   19.654211    3.424791
C     7.159571   19.654177    3.438383
C     8.582043   19.654208    3.434047
C     4.310763   19.654178    3.436023
C    29.937882   19.654829    3.390352
C    21.394948   19.654938    3.393265
C     2.175143    1.159634    3.435527
C    19.259283    1.160171    3.410128
C    32.073332    1.160079    3.415002
C    14.988392    1.159923    3.414207
C    17.836417    1.160004    3.413969
C     0.752616    1.159740    3.428990
C    30.650741    1.160154    3.408343
C    19.972013    2.393110    3.411721
C    17.123697    2.393076    3.410763
C    25.666179    2.393275    3.404106
C    24.243404    2.393269    3.404207
C    28.514928    2.393176    3.412405
C    21.394831    2.393251    3.408878
C    29.937632    2.393146    3.418173
C    19.259127    3.626158    3.413037
C    17.836322    3.626048    3.410135
C     2.174894    3.625785    3.454116
C    26.379111    3.626187    3.416822
C    23.530426    3.626260    3.413704
C    22.107613    3.626195    3.414565
C    19.971893    4.859171    3.415116
C    24.243343    4.859205    3.419510
C    21.394674    4.859201    3.417107
C    19.259091    6.092238    3.411787
C     2.174807    6.092328    3.462265
C    23.530372    6.092223    3.418325
C    22.107598    6.092231    3.417407
C    19.971902    7.325269    3.411057
C    24.243358    7.325176    3.413745
C    25.666145    7.325171    3.415327
C    21.394727    7.325165    3.412126
C     2.887914    7.325545    3.460622
C    23.530459    8.558098    3.403359
C    26.379184    8.558157    3.406180
C    27.801938    8.558156    3.410451
C     2.174843    8.558643    3.458582
C    19.259154    8.558256    3.406585
C    17.836334    8.558419    3.406618
C    22.107691    8.558190    3.404831
C    19.972010    9.791291    3.401816
C     2.888057    9.791798    3.453617
C    15.700873    9.791561    3.411516
C    29.937697    9.791160    3.408180
C    17.123721    9.791350    3.408238
C    19.259260   11.024192    3.400817
C     2.175117   11.024716    3.444523
C    14.988312   11.024426    3.419113
C    32.073458   11.024261    3.411800
C     0.752650   11.024538    3.436642
C    17.836410   11.024373    3.408585
C    13.565538   11.024647    3.424495
C     2.888472   12.257625    3.438158
C     0.039903   12.257335    3.419163
C     8.581933   12.257709    3.440136
C     7.159512   12.257759    3.441572
C    11.430234   12.257664    3.436156
C     4.310836   12.257697    3.441388
C    12.852883   12.257484    3.432104
C     2.175507   13.490379    3.425022
C     0.753166   13.490240    3.414944
C    19.259331   13.490108    3.398500
C     9.294965   13.490494    3.439591
C     6.446413   13.490490    3.438249
C     5.024211   13.490492    3.436496
C     2.888786   14.723141    3.422167
C     7.159681   14.723144    3.436687
C     4.311077   14.723137    3.428983
C     2.175655   15.955856    3.413569
C    19.259352   15.956009    3.400523
C     6.446516   15.955845    3.433638
C     5.024326   15.955833    3.429533
C     2.888771   17.188657    3.418709
C     7.159746   17.188557    3.435372
C     8.581988   17.188601    3.435112
C     4.310986   17.188608    3.426691
C    19.972181   17.188891    3.395439
C     6.446506   18.421363    3.436397
C     9.294985   18.421385    3.433545
C    10.717477   18.421440    3.430579
C    19.259390   18.421853    3.405201
C     2.175508   18.421509    3.418252
C     0.753088   18.421591    3.409563
C     5.024068   18.421335    3.433516
C     2.888401   19.654260    3.429734
C    19.972113   19.654784    3.403594
C    32.786501   19.654712    3.406449
C    12.852932   19.654416    3.422022
C     0.039822   19.654493    3.414028
C    32.786034    2.393016    3.431184
C     0.039421    2.392806    3.437280
C    30.650465    3.626112    3.432754
C    32.073061    3.626053    3.438545
C     0.752281    3.625898    3.450288
C    27.801890    3.626182    3.420679
C    28.514831    4.859146    3.430216
C    29.937499    4.859166    3.435838
C     0.039234    4.859116    3.454883
C    25.666109    4.859194    3.421152
C    26.379080    6.092214    3.423313
C    27.801828    6.092195    3.427391
C     0.752182    6.092347    3.460457
C    28.514818    7.325195    3.424854
C    29.937526    7.325228    3.431539
C     0.039272    7.325460    3.456284
C     0.752291    8.558586    3.454754
C    30.650550    8.558230    3.426478
C    32.073168    8.558353    3.436220
C     0.039531    9.791520    3.441989
C    32.786218    9.791348    3.431147
C    15.700965   12.257465    3.422732
C    17.123748   12.257260    3.414608
C    13.565543   13.490399    3.435305
C    14.988373   13.490279    3.430165
C    17.836528   13.490185    3.412636
C    10.717398   13.490435    3.438324
C    11.430189   14.723238    3.438881
C    12.852838   14.723174    3.437842
C    17.123862   14.723045    3.420482
C     8.581946   14.723179    3.437636
C     9.294993   15.955885    3.436911
C    10.717358   15.955946    3.436861
C    17.836611   15.955965    3.416249
C    11.430246   17.188714    3.434730
C    12.852869   17.188743    3.434077
C    17.123880   17.188873    3.422002
C    17.836583   18.421731    3.416764
C    13.565567   18.421514    3.429152
C    14.988343   18.421702    3.427458
C    17.123825   19.654749    3.417754
C    15.700980   19.654537    3.421158
C    32.785892    4.859124    3.449178
C    30.650430    6.092215    3.440583
C    32.073024    6.092231    3.447523
C    32.785964    7.325330    3.448911
C    15.701074   14.723127    3.430698
C    13.565583   15.955968    3.437440
C    14.988346   15.955994    3.433968
C    15.701039   17.188780    3.430370
C     7.164828    4.855619    6.597497
C    24.247487   14.721486    6.614682
C     7.875785    3.621792    6.595610
C    10.023194    4.858979    6.611560
C     7.162416    7.329897    6.568499
C    24.959229   13.488433    6.615987
C    27.092244   14.721692    6.613733
C    24.247309   17.187899    6.617344
C     9.307271    3.619317    6.615151
C     5.730847    4.856527    6.628275
C     7.875712    6.094495    6.612068
C     9.309609    6.095245    6.611110
C     5.733191    7.330027    6.578987
C     7.876383    8.565947    6.599468
C    26.380711   13.488624    6.614664
C    22.825750   14.721403    6.619242
C    24.958946   15.954811    6.613401
C    26.380546   15.954712    6.612691
C    22.825786   17.187833    6.622268
C    24.958745   18.420788    6.621368
C     5.021451    3.622397    6.635060
C    11.452800    4.859778    6.607810
C    22.114032   13.488436    6.622898
C    28.513581   14.721919    6.615847
C     5.019311    6.095880    6.630090
C     5.019603    8.567921    6.612144
C    22.114129   15.954685    6.621648
C    22.114514   18.420716    6.628877
C     7.164790    2.384367    6.622190
C    10.020735    2.380390    6.618489
C     3.592341    3.620135    6.667404
C    12.166544    3.621222    6.605731
C    10.024361    7.327710    6.614379
C    24.247438   12.255405    6.620440
C    27.092288   12.255881    6.620930
C    20.692163   13.488669    6.629105
C    29.225433   13.489422    6.621255
C    27.092088   17.187467    6.615828
C     5.734135    2.385686    6.645447
C    11.450437    2.380905    6.606996
C     2.875078    4.859521    6.654659
C     3.587856    6.095201    6.639144
C    12.165971    6.095332    6.631151
C    11.452676    7.329824    6.637376
C     9.307759    8.565479    6.621464
C     7.165190    9.800009    6.625014
C    22.826047   12.255395    6.623886
C    28.513542   12.256648    6.623606
C    19.980524   14.721768    6.632277
C    20.692429   15.954733    6.630221
C    29.225285   15.954367    6.617986
C    28.513646   17.187117    6.617690
C    26.380041   18.420405    6.619112
C    24.247264   19.653851    6.628156
C     5.731395    9.799896    6.634296
C    22.826257   19.653856    6.632307
C     9.309722    1.146520    6.633850
C     5.018033    1.149302    6.670177
C     2.879015    2.379571    6.660523
C    13.589567    3.622810    6.618416
C    14.296903    4.857440    6.625236
C    13.586297    6.092561    6.629203
C    26.380367   11.023084    6.626447
C    22.114517   11.022622    6.630619
C    19.980625   12.255874    6.633237
C    30.646692   13.490294    6.627499
C    31.358830   14.722397    6.628417
C    30.646840   15.954149    6.622806
C     3.590508    1.146626    6.670132
C     7.880515    1.150543    6.645903
C    12.159913    1.148481    6.623129
C    24.958862    1.159116    6.636130
C    14.295331    2.387769    6.625376
C    14.294948    7.326295    6.636107
C    12.162414    8.564136    6.646910
C    10.024329    9.799242    6.646561
C    20.692847   11.022966    6.634711
C    24.958991   11.022610    6.626658
C    29.224900   11.024106    6.634595
C     7.875562   11.036482    6.653256
C    31.358284   12.258057    6.641015
C    31.358702   17.186266    6.627841
C    29.225259   18.419730    6.624711
C    27.091697   19.653146    6.627689
C    13.582918    1.154203    6.626023
C    26.379829    1.158290    6.635503
C    22.115076    1.159154    6.640668
C     1.451206    2.381238    6.655056
C    15.717283    4.857638    6.631833
C     1.448935    4.860745    6.665098
C    16.427415    6.091842    6.637253
C    15.716201    7.325094    6.635805
C     2.871759    7.327644    6.654998
C    13.583804    8.560188    6.642667
C     3.590151    8.565124    6.662140
C    27.091619    9.790425    6.637008
C    28.512975    9.791267    6.640471
C    11.451603    9.797561    6.652659
C    30.646264   11.025370    6.643483
C     9.307790   11.036677    6.655781
C     5.021627   11.038366    6.666001
C    18.558828   12.256435    6.638941
C    32.780787   14.723241    6.637209
C    18.558685   14.722062    6.640778
C    33.493192   15.954558    6.638614
C    32.780692   17.185525    6.632901
C    19.980839   17.187543    6.635153
C    30.646687   18.418480    6.628197
C    20.693037   18.420371    6.634743
C    10.018683   19.646150    6.638885
C    11.444464   19.646443    6.632022
C    28.513289   19.652497    6.629495
C    30.645791    1.156268    6.642684
C    29.224658    1.157760    6.640696
C    15.716555    2.390041    6.634029
C    28.512976    2.390804    6.648567
C    27.091779    2.391311    6.646569
C    24.247548    2.392203    6.645166
C     0.734553    3.621069    6.658972
C    16.427279    3.623611    6.637030
C    26.380556    3.624449    6.653694
C    18.560036    4.857810    6.648611
C    17.848723    6.091498    6.643432
C    28.512929    7.324961    6.658885
C    18.560234    7.324727    6.645498
C    17.848581    8.557834    6.641105
C    16.426568    8.558712    6.639749
C    29.224440    8.558304    6.654462
C    24.247398    9.789948    6.634842
C    22.826319    9.789932    6.636958
C    19.981769    9.790149    6.639595
C    18.559798    9.790715    6.640711
C    15.715147    9.791490    6.641730
C    31.356987    9.792233    6.661165
C    14.292537    9.793651    6.646363
C    13.580833   11.026295    6.652231
C    12.157363   11.029150    6.658061
C    32.779787   12.260293    6.654893
C    11.443677   12.262310    6.662491
C    10.019564   12.267305    6.668305
C     7.161545   12.270095    6.668422
C    17.846848   13.489410    6.641902
C    33.492057   13.491908    6.652338
C     9.303428   13.495509    6.667240
C     1.459112   14.723914    6.661265
C     0.746652   15.954606    6.647124
C    11.441066   17.184976    6.649160
C     1.458771   17.184678    6.649528
C     0.745482   18.415048    6.644464
C    33.492309   18.417202    6.638370
C    12.154389   18.415826    6.642910
C     7.166106   19.642502    6.671860
C     5.732741   19.643231    6.683702
C     2.880586   19.644938    6.662291
C     1.456156   19.646028    6.651633
C    32.779044   19.648905    6.639287
C    14.291437   19.649532    6.639092
C    31.357602   19.651367    6.636875
C     0.740636    1.147319    6.651171
C    33.488574    1.153828    6.647272
C    16.426196    1.156377    6.641771
C    20.693687    1.158351    6.644685
C    32.776132    2.387199    6.654438
C    31.356215    2.389801    6.654300
C    18.560053    2.390850    6.647879
C    22.826650    2.392206    6.647404
C    30.645280    3.623410    6.661842
C    29.224628    3.624077    6.659684
C    17.848794    3.624152    6.644751
C    24.959367    3.624964    6.653446
C    22.114778    3.624986    6.653897
C    20.693275    3.624553    6.653956
C    27.092351    4.857618    6.660432
C    24.247642    4.857725    6.657347
C    28.513226    4.857676    6.662842
C    22.826413    4.857753    6.657714
C    19.981463    4.857644    6.653642
C    26.380383    6.090922    6.658757
C    24.959359    6.090783    6.657876
C    22.114552    6.090760    6.656333
C    29.224723    6.091489    6.666268
C    20.693310    6.090879    6.654853
C    30.645059    6.091808    6.671532
C     0.734639    6.096375    6.682259
C    24.247344    7.323751    6.652118
C    22.826424    7.323726    6.652552
C    27.091936    7.324328    6.655532
C    19.981811    7.324193    6.649174
C    31.356297    7.325403    6.674997
C     1.447347    7.330056    6.687449
C    24.958966    8.557036    6.644555
C    22.114875    8.556959    6.644908
C    26.379831    8.557414    6.645155
C    20.693712    8.557199    6.645589
C    30.645463    8.559300    6.663148
C    32.778172    9.794589    6.676434
C     2.873056    9.801211    6.685490
C    17.847677   11.023592    6.639645
C    16.425429   11.024594    6.643527
C    33.489950   11.027147    6.675338
C     3.590675   11.037349    6.686347
C    15.713342   12.257480    6.647551
C    14.290639   12.259426    6.653524
C     1.456097   12.263047    6.684987
C     5.735995   12.269892    6.675237
C    13.578229   13.491378    6.656346
C    12.153814   13.492880    6.661386
C     0.745676   13.493899    6.666062
C     7.876363   13.495580    6.671049
C     5.021121   13.496445    6.678796
C     3.594891   13.496131    6.681439
C    10.015497   14.724473    6.663966
C     7.161235   14.724775    6.672915
C    11.440417   14.723708    6.659422
C     5.736179   14.724747    6.676678
C     2.882653   14.724959    6.669826
C     9.301826   15.954565    6.662495
C     7.876347   15.954265    6.671292
C     5.021124   15.954357    6.675181
C    12.152785   15.954631    6.655092
C     3.596475   15.954748    6.668708
C    13.576870   15.954582    6.654138
C    17.846877   15.954617    6.645236
C     7.162424   17.182914    6.676311
C     5.735261   17.183082    6.680665
C    10.015969   17.184508    6.655108
C     2.882504   17.183944    6.660813
C    14.289269   17.185788    6.651977
C    18.558749   17.187250    6.643398
C     7.879233   18.411381    6.672654
C     5.018765   18.410701    6.683449
C     9.304250   18.413833    6.653633
C     3.594898   18.413830    6.669915
C    13.578029   18.417557    6.643959
C    15.714082   19.651439    6.643108
C    19.981524   19.653229    6.641333
C    17.848169    1.157691    6.645192
C    19.981887    2.391339    6.649235
C    33.483188    3.622729    6.666299
C    31.355813    4.857439    6.671491
C    32.774890    4.857421    6.673585
C    33.486096    6.092819    6.683828
C    32.776299    7.326851    6.684347
C    33.487688    8.560634    6.690133
C     0.738055    8.564432    6.695498
C     1.449293    9.798094    6.697704
C     0.742466   11.030629    6.688801
C     2.878491   12.269118    6.690842
C    16.424770   13.489984    6.648266
C    14.289381   14.723020    6.655717
C    15.712499   14.722307    6.651895
C    16.424437   15.954265    6.651661
C    15.712424   17.186289    6.651417
C    16.424720   18.418593    6.649045
C    17.847037   18.419752    6.646035
C    18.559357   19.652502    6.645668
