513       
Geometry optimisation iteration:     8
Li    8.597023    4.849055    8.509897
C    22.112217    1.163339    3.398033
C    26.383608    1.163350    3.397705
C    30.654876    1.163346    3.398141
C     6.450390    1.163257    3.392509
C    10.721452    1.163274    3.392653
C     2.179534    1.163441    3.398386
C    14.992346    1.163384    3.398172
C    19.263726    1.163348    3.398310
C    23.535196    1.163341    3.397407
C    27.806536    1.163370    3.397249
C    32.077744    1.163379    3.398287
C     0.756724    1.163396    3.399703
C     5.027643    1.163429    3.394611
C     9.298728    1.163162    3.392150
C    13.569549    1.163367    3.396862
C    17.840771    1.163383    3.399301
C    15.705074    2.396344    3.398368
C    19.976505    2.396334    3.398744
C    24.247941    2.396338    3.398443
C     4.314937    2.396337    3.393831
C    28.519257    2.396338    3.398329
C     0.044093    2.396365    3.399307
C     8.585953    2.396090    3.389947
C    12.856932    2.396317    3.393555
C    17.127981    2.396342    3.398751
C    21.399479    2.396330    3.398017
C    25.670883    2.396328    3.397931
C    29.942187    2.396336    3.397937
C    32.790442    2.396365    3.399514
C     2.892167    2.396389    3.396935
C     7.163049    2.396184    3.390679
C    11.434231    2.396130    3.391819
C    13.569563    3.629290    3.393938
C    17.840740    3.629343    3.399194
C     2.179581    3.629331    3.396994
C    22.112239    3.629326    3.398934
C    26.383625    3.629318    3.399013
C     6.450229    3.629201    3.389718
C    10.721627    3.629223    3.389522
C    14.992332    3.629346    3.396190
C    19.263695    3.629331    3.398691
C    23.535223    3.629323    3.398523
C    27.806568    3.629328    3.398463
C    30.654903    3.629330    3.399111
C     0.756778    3.629359    3.399323
C     5.027432    3.629311    3.391742
C    32.077818    3.629344    3.399124
C     9.298763    3.629114    3.389231
C     0.044159    4.862342    3.399247
C    11.434292    4.862325    3.389769
C    15.705018    4.862340    3.397344
C    19.976480    4.862331    3.399291
C    24.247956    4.862325    3.399494
C     4.314882    4.862327    3.392003
C     8.585928    4.862313    3.388318
C    12.857008    4.862315    3.391513
C    17.127946    4.862317    3.398420
C    21.399476    4.862314    3.398862
C    25.670922    4.862321    3.398997
C    28.519291    4.862315    3.399330
C    29.942218    4.862325    3.398876
C    32.790505    4.862324    3.399995
C     2.892161    4.862322    3.395547
C     7.162939    4.862313    3.388909
C     9.298763    6.095504    3.388341
C    13.569564    6.095337    3.393437
C    17.840748    6.095302    3.399221
C    22.112257    6.095326    3.399631
C    32.077821    6.095311    3.399344
C     2.179605    6.095303    3.396564
C     6.450236    6.095425    3.388847
C    10.721621    6.095440    3.388706
C    14.992339    6.095342    3.395846
C    19.263710    6.095331    3.398959
C    23.535208    6.095327    3.399255
C    26.383610    6.095326    3.399647
C    27.806559    6.095314    3.399023
C    30.654904    6.095330    3.399508
C     0.756795    6.095317    3.399108
C     5.027441    6.095321    3.391022
C     7.163084    7.328448    3.389026
C    11.434220    7.328484    3.390475
C    15.705081    7.328316    3.397963
C    19.976515    7.328319    3.399426
C    29.942181    7.328297    3.398712
C     0.044126    7.328268    3.399154
C     4.314956    7.328294    3.392713
C     8.585926    7.328539    3.388234
C    12.856916    7.328325    3.392539
C    17.127984    7.328299    3.398676
C    21.399469    7.328304    3.399047
C    25.670890    7.328293    3.399124
C    24.247946    7.328292    3.399692
C    28.519249    7.328288    3.399272
C    32.790469    7.328285    3.399714
C     2.892214    7.328253    3.396088
C     5.027682    8.561214    3.393074
C     9.298717    8.561499    3.389945
C    13.569533    8.561292    3.395827
C    17.840768    8.561290    3.399456
C    27.806539    8.561284    3.398528
C    32.077761    8.561275    3.398713
C     2.179577    8.561224    3.397536
C     6.450413    8.561374    3.390591
C    10.721435    8.561360    3.390709
C    23.535183    8.561286    3.398898
C    14.992352    8.561258    3.397547
C    19.263724    8.561300    3.398899
C    22.112235    8.561292    3.399351
C    26.383593    8.561284    3.399170
C    30.654870    8.561273    3.398914
C     0.756759    8.561242    3.399296
C     7.163207    9.794236    3.392409
C    11.434076    9.794309    3.394225
C    15.705111    9.794217    3.399372
C    25.670848    9.794241    3.398180
C    29.942142    9.794252    3.398036
C     0.044062    9.794216    3.398903
C     4.315039    9.794153    3.395438
C    21.399465    9.794282    3.398576
C     8.585941    9.794317    3.391586
C    12.856809    9.794208    3.395875
C    17.128009    9.794266    3.399147
C    19.976521    9.794270    3.399153
C    24.247903    9.794264    3.398813
C    28.519214    9.794255    3.398475
C    32.790397    9.794249    3.399081
C     2.892241    9.794149    3.397804
C     5.027758   11.027072    3.396404
C     9.298605   11.027228    3.394741
C    13.569490   11.027190    3.398535
C    23.535148   11.027197    3.397810
C    27.806492   11.027207    3.397390
C    19.263729   11.027224    3.398655
C    32.077714   11.027215    3.398136
C     2.179554   11.027128    3.398347
C     6.450528   11.027150    3.394751
C    10.721335   11.027174    3.395215
C    14.992344   11.027159    3.399013
C    17.840789   11.027239    3.399446
C    22.112213   11.027224    3.398623
C    26.383549   11.027192    3.397869
C    30.654813   11.027204    3.398280
C     0.756701   11.027156    3.399145
C    32.790368   12.260172    3.398495
C     2.892239   12.260098    3.398508
C     7.163190   12.260126    3.396740
C    21.399423   12.260196    3.397967
C    11.433990   12.260150    3.397971
C    17.127983   12.260180    3.398925
C    25.670833   12.260158    3.396665
C    29.942117   12.260165    3.397240
C     0.043999   12.260150    3.398285
C     4.315064   12.260092    3.397422
C     8.585916   12.260153    3.396325
C    12.856761   12.260131    3.398404
C    15.705092   12.260143    3.399583
C    19.976478   12.260185    3.398807
C    24.247887   12.260173    3.397420
C    28.519211   12.260158    3.397326
C    30.654779   13.493150    3.397607
C     0.756658   13.493122    3.398500
C    19.263710   13.493164    3.398272
C     5.027738   13.493096    3.398098
C     9.298567   13.493143    3.398458
C    23.535128   13.493138    3.396628
C    27.806485   13.493130    3.396112
C    32.077670   13.493145    3.397586
C     2.179524   13.493120    3.398075
C     6.450524   13.493125    3.397597
C    10.721306   13.493115    3.398379
C    13.569471   13.493148    3.399506
C    17.840790   13.493151    3.398956
C    22.112160   13.493155    3.397774
C    14.992323   13.493137    3.398992
C    26.383545   13.493135    3.396453
C    17.128010   14.726112    3.398422
C    28.519170   14.726097    3.396465
C    32.790305   14.726101    3.398059
C     2.892199   14.726117    3.398479
C     7.163164   14.726126    3.398776
C    21.399420   14.726112    3.397341
C    25.670803   14.726110    3.395620
C    29.942095   14.726112    3.396588
C     0.043973   14.726122    3.397827
C     4.315050   14.726123    3.398043
C     8.585929   14.726122    3.398678
C    11.433972   14.726131    3.399633
C    12.856779   14.726120    3.399263
C    15.705087   14.726123    3.399251
C    19.976478   14.726117    3.398370
C    24.247852   14.726095    3.396466
C    26.383550   15.959092    3.395938
C    30.654796   15.959102    3.397343
C     0.756654   15.959111    3.398556
C     5.027738   15.959159    3.398690
C    14.992312   15.959123    3.399250
C    19.263697   15.959093    3.397972
C    23.535123   15.959079    3.396128
C    27.806486   15.959072    3.395693
C    32.077653   15.959070    3.397364
C     2.179504   15.959110    3.398315
C     6.450519   15.959137    3.398333
C     9.298575   15.959103    3.399367
C    10.721310   15.959129    3.399189
C    13.569480   15.959107    3.399941
C    17.840785   15.959080    3.398779
C    22.112162   15.959086    3.397287
C    24.247872   17.192038    3.396433
C    28.519198   17.192049    3.396598
C    32.790345   17.192042    3.398221
C     2.892218   17.192118    3.399128
C    12.856767   17.192109    3.399339
C    17.128002   17.192058    3.398806
C    21.399431   17.192042    3.397145
C    25.670833   17.192051    3.395641
C    29.942106   17.192056    3.396704
C     0.043984   17.192090    3.398286
C     4.315048   17.192154    3.398345
C     8.585923   17.192076    3.397964
C     7.163188   17.192123    3.398191
C    11.433995   17.192107    3.399292
C    15.705101   17.192094    3.399848
C    19.976486   17.192049    3.398183
C    22.112215   18.425007    3.397453
C    26.383553   18.425016    3.396482
C    30.654802   18.425019    3.397647
C     0.756679   18.425067    3.399413
C    10.721338   18.425069    3.397143
C    14.992360   18.425064    3.399556
C    19.263720   18.425003    3.398030
C    23.535159   18.425007    3.396496
C    27.806496   18.425017    3.396217
C     6.450527   18.425098    3.396474
C    32.077692   18.425020    3.397711
C     2.179545   18.425113    3.399008
C     5.027731   18.425170    3.397753
C     9.298578   18.425029    3.396910
C    13.569509   18.425076    3.399531
C    17.840784   18.425021    3.399151
C    24.247911   19.657982    3.397251
C    28.519228   19.657978    3.397304
C    32.790387   19.658016    3.398814
C     8.585931   19.657952    3.393974
C    12.856813   19.658063    3.397205
C    17.127985   19.658010    3.399107
C    21.399458   19.657963    3.397418
C     4.315014   19.658086    3.396785
C    25.670870   19.657983    3.396583
C    29.942130   19.657973    3.397164
C     0.044027   19.658016    3.399042
C     2.892211   19.658114    3.398790
C     7.163189   19.658017    3.394543
C    11.434091   19.657926    3.396090
C    15.705114   19.658019    3.399765
C    19.976500   19.657974    3.398337
C    10.010324    4.862456    6.621245
C     7.148770    4.862400    6.622051
C     7.865128    6.100696    6.623962
C     9.294005    6.101020    6.621349
C    27.088295   14.726359    6.631496
C    24.240268   14.726291    6.630781
C    24.952919   15.959282    6.632261
C    26.375732   15.959323    6.631749
C     7.864953    3.623884    6.621921
C     9.294077    3.623645    6.619204
C    11.429347    7.330751    6.624282
C    10.007764    7.335661    6.625635
C     7.150920    7.335792    6.625551
C     7.867353    8.564997    6.624767
C     9.291200    8.565105    6.624030
C    24.952856   13.493324    6.630500
C    26.375673   13.493353    6.629957
C    28.511067   17.192450    6.628020
C    27.088313   17.192322    6.629929
C    24.240352   17.192231    6.629068
C    24.952932   18.425192    6.628610
C    26.375703   18.425254    6.628087
C     7.867214    1.159840    6.626629
C     9.291125    1.159786    6.625750
C    12.141027    1.161863    6.628604
C     5.017465    1.161553    6.627944
C    33.494553    1.163890    6.632984
C     3.595113    1.163127    6.629376
C    16.410956    1.163746    6.632298
C     0.747945    1.163758    6.631310
C    13.563572    1.163306    6.628893
C    17.833699    1.163774    6.632650
C    20.681978    1.163637    6.632593
C    29.223662    1.163746    6.631290
C    30.646441    1.163907    6.631180
C    24.952927    1.163500    6.631251
C    22.104860    1.163530    6.631414
C    26.375649    1.163566    6.630458
C    10.007845    2.389169    6.625409
C     7.150675    2.388920    6.625524
C     5.729373    2.394310    6.626528
C    14.276293    2.396092    6.628941
C     2.882560    2.395967    6.627755
C    11.429443    2.394470    6.625449
C    31.359221    2.396899    6.632939
C     1.460394    2.396606    6.630084
C    18.546299    2.396768    6.634018
C    32.782005    2.396921    6.632811
C    15.698600    2.396629    6.629994
C    22.817445    2.396500    6.632652
C    27.088222    2.396582    6.632293
C    19.969194    2.396654    6.632978
C    28.511020    2.396711    6.631271
C    24.240264    2.396465    6.632068
C    12.142895    3.628391    6.625851
C    33.494765    3.629964    6.633738
C     3.594124    3.629192    6.627033
C    16.410837    3.629833    6.631959
C    20.681820    3.629693    6.633322
C    30.646549    3.629947    6.631954
C     0.748161    3.629844    6.630449
C     5.016062    3.628249    6.625203
C    13.565036    3.629312    6.626866
C    17.833567    3.629821    6.633877
C    29.223693    3.629809    6.631523
C    24.952803    3.629564    6.632498
C    22.104747    3.629585    6.631592
C    26.375626    3.629625    6.631650
C    27.088181    4.862699    6.631106
C    31.359314    4.862982    6.633385
C     1.460406    4.862886    6.629644
C    14.276217    4.862854    6.628021
C    18.546062    4.862868    6.635375
C    22.817347    4.862636    6.631136
C    28.511018    4.862822    6.629916
C    32.782214    4.863016    6.633905
C     2.882769    4.862762    6.626628
C    11.435385    4.862592    6.624959
C    15.698738    4.862900    6.629889
C    19.969053    4.862766    6.633420
C    24.240212    4.862597    6.630788
C     5.724235    4.862494    6.626328
C    24.952737    6.095663    6.631849
C    29.223700    6.095916    6.630661
C    33.494859    6.096046    6.634267
C    16.410750    6.096002    6.632643
C    20.681721    6.095784    6.632661
C    26.375569    6.095700    6.631018
C    30.646596    6.095984    6.631353
C     0.748276    6.096011    6.631090
C    17.833476    6.095950    6.634436
C    22.104641    6.095725    6.630680
C     3.594246    6.096203    6.626657
C    12.142838    6.096927    6.625458
C    13.564978    6.096313    6.626419
C     5.016189    6.096849    6.624815
C    24.240134    7.328700    6.632255
C    22.817297    7.328718    6.632442
C    27.088179    7.328782    6.632496
C    31.359340    7.329035    6.632796
C    18.546112    7.328962    6.634565
C    28.511011    7.328877    6.631063
C    32.782162    7.329055    6.633269
C    15.698453    7.329198    6.630519
C    19.968980    7.328867    6.632827
C     1.460624    7.329154    6.630552
C    14.276172    7.329620    6.628253
C     2.882791    7.329536    6.627161
C     5.729655    7.330664    6.625219
C    24.952773    8.561658    6.633515
C    29.223716    8.561856    6.632592
C    22.104616    8.561709    6.632824
C    26.375566    8.561701    6.632700
C    20.681744    8.561803    6.633350
C    33.494777    8.562044    6.633445
C    16.410733    8.562127    6.632867
C    30.646544    8.561947    6.631875
C    17.833459    8.562000    6.633361
C     3.595445    8.562254    6.627523
C     0.748219    8.562095    6.631666
C    13.563445    8.562342    6.626974
C    12.140915    8.563552    6.625848
C     5.017799    8.563572    6.625104
C    27.088218    9.794638    6.632043
C    24.240131    9.794549    6.631621
C    22.817319    9.794624    6.632987
C    28.511010    9.794730    6.631729
C    18.546159    9.794887    6.633645
C    31.359266    9.794918    6.632755
C    19.969025    9.794818    6.632835
C    32.782072    9.794922    6.632436
C    15.697991    9.795012    6.631913
C     1.460900    9.794925    6.632108
C    14.275322    9.795149    6.630165
C     2.883428    9.795069    6.629341
C     5.731727    9.795482    6.626013
C    10.004165    9.797027    6.625272
C    11.426871    9.795569    6.625233
C     7.154272    9.797081    6.624536
C    24.952785   11.027450    6.629808
C    26.375594   11.027509    6.629167
C    29.223732   11.027683    6.631161
C    22.104641   11.027558    6.631149
C    16.410503   11.027924    6.633423
C    20.681794   11.027693    6.632793
C    33.494830   11.027872    6.632925
C    17.833350   11.027878    6.632766
C    30.646544   11.027809    6.631356
C     0.748342   11.027837    6.632255
C     3.596609   11.027696    6.630883
C    12.139368   11.028336    6.628568
C    13.562029   11.027826    6.630177
C     7.867946   11.029024    6.626712
C     5.019101   11.028294    6.628194
C     9.290457   11.029068    6.626001
C    27.088275   12.260458    6.629145
C    24.240204   12.260376    6.628433
C    22.817378   12.260426    6.629642
C    31.359260   12.260733    6.631579
C    19.969059   12.260650    6.631711
C    28.511070   12.260537    6.628640
C    14.274662   12.260821    6.633747
C    18.546123   12.260778    6.632665
C     1.461186   12.260682    6.632926
C    15.697563   12.260819    6.632681
C    32.782077   12.260794    6.631562
C     5.732255   12.260730    6.631803
C    10.003382   12.261304    6.630401
C     2.883927   12.260676    6.632850
C    11.426148   12.260874    6.630819
C     7.154955   12.261273    6.629950
C    29.223740   13.493559    6.628977
C    16.410360   13.493784    6.632342
C    20.681823   13.493532    6.631077
C    33.494819   13.493731    6.631752
C     3.596788   13.493491    6.635457
C    13.561721   13.493693    6.635004
C    17.833344   13.493771    6.631226
C    22.104739   13.493421    6.629025
C    30.646560   13.493645    6.629459
C     0.748423   13.493679    6.631510
C    12.138848   13.493743    6.635740
C     7.867782   13.493755    6.634168
C     5.019512   13.493583    6.635177
C     9.290487   13.493792    6.633442
C    10.003296   14.726470    6.636075
C    14.274562   14.726771    6.635413
C    18.546178   14.726669    6.631899
C    31.359247   14.726644    6.630733
C     1.461198   14.726641    6.632884
C     5.732269   14.726406    6.636871
C    11.426023   14.726580    6.636187
C    15.697496   14.726781    6.632420
C    19.969151   14.726548    6.630893
C    28.511080   14.726468    6.628732
C    32.782061   14.726714    6.631100
C     2.883939   14.726554    6.634402
C     7.154936   14.726361    6.635504
C    22.817448   14.726333    6.629793
C     7.867729   15.958969    6.634282
C    12.138882   15.959508    6.635565
C    16.410456   15.959768    6.632588
C    33.494723   15.959678    6.632319
C     3.596669   15.959550    6.635160
C     9.290438   15.959040    6.633582
C    13.561759   15.959767    6.634733
C    17.833442   15.959681    6.631627
C     0.748314   15.959666    6.631878
C     5.019393   15.959263    6.634930
C    20.681933   15.959471    6.630762
C    29.223730   15.959525    6.628827
C    30.646504   15.959604    6.629182
C    22.104834   15.959351    6.628838
C     7.154802   17.191383    6.630986
C     5.732073   17.192039    6.632431
C    10.003340   17.191568    6.631471
C    14.274790   17.192654    6.633713
C     1.460961   17.192613    6.633280
C    11.426151   17.192221    6.631513
C    15.697725   17.192734    6.632871
C    32.781930   17.192648    6.632113
C     2.883713   17.192429    6.632866
C    18.546328   17.192557    6.632986
C    31.359156   17.192603    6.631150
C    19.969272   17.192469    6.631157
C    22.817534   17.192274    6.628855
C     7.867759   18.423620    6.629470
C    12.139437   18.424830    6.630399
C     5.018851   18.424511    6.630042
C     9.290349   18.423661    6.628726
C     3.596312   18.425324    6.631913
C    16.410716   18.425594    6.633764
C    33.494599   18.425592    6.633490
C    13.562153   18.425522    6.631160
C     0.748092   18.425543    6.632847
C    20.682049   18.425320    6.631047
C    17.833577   18.425519    6.633041
C    30.646444   18.425527    6.629738
C    29.223701   18.425440    6.628817
C    22.104893   18.425241    6.628604
C    10.004140   19.655661    6.628559
C     7.154033   19.655504    6.627991
C     5.731450   19.657240    6.629336
C    11.426899   19.657420    6.628398
C     1.460591   19.658436    6.632509
C    14.275499   19.658234    6.631373
C     2.883091   19.658033    6.630583
C    15.698173   19.658506    6.632129
C    32.781859   19.658589    6.632326
C    18.546419   19.658448    6.633289
C    31.359123   19.658548    6.631750
C    19.969294   19.658309    6.631698
C    22.817557   19.658171    6.629949
C    27.088285   19.658258    6.629178
C    28.511005   19.658363    6.628893
C    24.240340   19.658157    6.628586
