548       
Geometry optimisation iteration:    17
Li    8.582669    4.868283    8.744990
Li    8.581493   14.733000    8.743165
Li   25.654299   14.734369    8.745378
Li   25.655094    4.866346    8.743763
C    10.019773    4.864879    6.833415
C     7.148421    4.864852    6.836818
C     7.864971    6.107385    6.835845
C     9.303297    6.107377    6.834536
C    27.102203   14.728724    6.841306
C    24.231378   14.728699    6.831007
C    24.947856   15.971306    6.833136
C    26.385951   15.971195    6.838539
C     7.864844    3.622072    6.835693
C     9.303402    3.622130    6.834416
C    11.435502    7.333197    6.847597
C    10.012520    7.336772    6.836121
C     7.155702    7.336777    6.837781
C     7.868054    8.563170    6.849467
C     9.300218    8.563147    6.849551
C    24.947761   13.485929    6.833174
C    26.385987   13.486078    6.838551
C    28.518049   17.197074    6.853783
C    27.095074   17.200619    6.840984
C    24.238879   17.200679    6.835430
C    24.951007   18.426987    6.849864
C    26.382993   18.427085    6.850110
C     7.868091    1.166374    6.847405
C     9.300125    1.166432    6.847483
C    12.145444    1.162089    6.857030
C     5.022417    1.161932    6.858190
C    33.496177    1.169066    6.862297
C     3.592562    1.162722    6.860932
C    16.412693    1.168884    6.861836
C     0.754008    1.168950    6.861600
C    13.575008    1.162823    6.860695
C    17.839352    1.168884    6.863325
C    20.676817    1.162716    6.861881
C    29.228107    1.161969    6.858732
C    30.657863    1.162960    6.859528
C    24.951075    1.166274    6.847846
C    22.106266    1.161864    6.859384
C    26.382849    1.166268    6.847986
C    10.012532    2.392778    6.833718
C     7.155654    2.392718    6.835348
C     5.732553    2.396670    6.850161
C    14.285437    2.398285    6.859690
C     2.881954    2.398192    6.859587
C    11.435498    2.396796    6.847864
C    31.368203    2.398342    6.857873
C     1.461128    2.398787    6.851182
C    18.546183    2.398712    6.853675
C    32.789003    2.398858    6.850963
C    15.705926    2.398779    6.851806
C    22.816026    2.396609    6.852493
C    27.094978    2.392729    6.843379
C    19.966585    2.398133    6.861766
C    28.517927    2.396776    6.857545
C    24.238759    2.392547    6.838115
C    12.147628    3.633554    6.846394
C    33.496261    3.629073    6.863653
C     3.593066    3.634414    6.853868
C    16.412854    3.629064    6.863960
C    20.677223    3.634316    6.856212
C    30.657203    3.634456    6.854625
C     0.753872    3.629093    6.862902
C     5.020255    3.633472    6.849847
C    13.574555    3.634520    6.853355
C    17.839265    3.628964    6.865637
C    29.230158    3.633562    6.857005
C    24.947523    3.621863    6.840623
C    22.103929    3.633387    6.851406
C    26.385958    3.622009    6.846052
C    27.102220    4.864839    6.849861
C    31.364920    4.865191    6.845574
C     1.464834    4.865390    6.858415
C    14.282225    4.865204    6.845315
C    18.549949    4.865354    6.862684
C    22.808490    4.864814    6.838661
C    28.525026    4.864895    6.849748
C    32.785202    4.865456    6.860294
C     2.885180    4.865133    6.844890
C    11.442639    4.864923    6.833139
C    15.702205    4.865387    6.859888
C    19.969805    4.865065    6.848339
C    24.231064    4.864809    6.839434
C     5.725422    4.864852    6.837991
C    24.947612    6.107560    6.842798
C    29.230076    6.096354    6.860096
C    33.496410    6.101674    6.860381
C    16.412933    6.101593    6.860582
C    20.677058    6.095765    6.858123
C    26.385842    6.107474    6.848180
C    30.657344    6.095850    6.856643
C     0.753800    6.101577    6.859567
C    17.839120    6.101626    6.862295
C    22.103964    6.096312    6.854541
C     3.592998    6.095739    6.855176
C    12.147533    6.096392    6.848567
C    13.574661    6.095821    6.854600
C     5.020374    6.096324    6.852027
C    24.238717    7.336904    6.845035
C    22.815923    7.333178    6.855336
C    27.094956    7.336831    6.850108
C    31.368266    7.332290    6.857032
C    18.546087    7.331833    6.852840
C    28.517964    7.333217    6.860138
C    32.789070    7.331832    6.850317
C    15.705901    7.331853    6.850521
C    19.966471    7.332255    6.860783
C     1.461193    7.331804    6.849930
C    14.285414    7.332338    6.857499
C     2.882022    7.332248    6.857420
C     5.732612    7.333184    6.849871
C    24.950908    8.563234    6.858432
C    29.228232    8.567929    6.857844
C    22.106061    8.567850    6.858734
C    26.382887    8.563298    6.858454
C    20.676825    8.567386    6.859335
C    33.496147    8.561642    6.864838
C    16.412498    8.561807    6.863911
C    30.657801    8.567382    6.856979
C    17.839364    8.561714    6.865747
C     3.592777    8.567422    6.855608
C     0.754219    8.561708    6.863646
C    13.574892    8.567512    6.855398
C    12.145505    8.567882    6.851770
C     5.022438    8.567868    6.852881
C    27.095087    9.796796    6.854465
C    24.238781    9.796798    6.856730
C    22.814356    9.796761    6.848870
C    28.519695    9.796791    6.846896
C    18.549070    9.797306    6.864333
C    31.364913    9.797106    6.850029
C    19.970026    9.797080    6.851848
C    32.786194    9.797289    6.863771
C    15.702892    9.797376    6.861447
C     1.464147    9.797280    6.861136
C    14.281878    9.797136    6.848963
C     2.885501    9.797036    6.849003
C     5.731083    9.796786    6.843051
C    10.012507    9.796773    6.849741
C    11.437079    9.796830    6.842552
C     7.155777    9.796752    6.849726
C    24.951053   11.030183    6.847847
C    26.382868   11.030159    6.848169
C    29.228125   11.025793    6.858878
C    22.106238   11.025806    6.858912
C    16.412577   11.032754    6.861114
C    20.676791   11.026629    6.861402
C    33.496340   11.032752    6.862435
C    17.839242   11.032755    6.862692
C    30.657910   11.026721    6.859652
C     0.754172   11.032675    6.861539
C     3.592686   11.026538    6.861065
C    12.145345   11.025849    6.856764
C    13.574938   11.026637    6.860442
C     7.868200   11.030086    6.847011
C     5.022578   11.025738    6.858378
C     9.300136   11.030144    6.846786
C    27.095004   12.256692    6.838672
C    24.238881   12.256519    6.833031
C    22.816115   12.260532    6.848251
C    31.368378   12.262083    6.857543
C    19.966487   12.262032    6.860312
C    28.517965   12.260618    6.854181
C    14.285327   12.262091    6.860108
C    18.546054   12.262575    6.852531
C     1.461289   12.262550    6.851762
C    15.705778   12.262641    6.851043
C    32.789193   12.262566    6.851351
C     5.732663   12.260487    6.854490
C    10.012525   12.256538    6.838075
C     2.882081   12.261981    6.860872
C    11.435454   12.260597    6.851315
C     7.155721   12.256458    6.840490
C    29.230285   13.497441    6.852891
C    16.412683   13.492933    6.862622
C    20.677206   13.498197    6.853866
C    33.496480   13.492804    6.864615
C     3.593173   13.498199    6.856698
C    13.574458   13.498312    6.855285
C    17.839102   13.492823    6.864241
C    22.103996   13.497336    6.846443
C    30.657404   13.498249    6.853469
C     0.754058   13.492885    6.863842
C    12.147578   13.497336    6.851210
C     7.864803   13.485795    6.843548
C     5.020325   13.497239    6.855532
C     9.303468   13.485856    6.841873
C    10.019914   14.728741    6.841722
C    14.282067   14.729010    6.846255
C    18.549842   14.729205    6.861490
C    31.365141   14.728997    6.845320
C     1.464963   14.729171    6.859563
C     5.725331   14.728655    6.846066
C    11.442680   14.728725    6.840286
C    15.702070   14.729237    6.858872
C    19.969762   14.728921    6.846709
C    28.525104   14.728757    6.842981
C    32.785404   14.729220    6.861333
C     2.885307   14.728898    6.847018
C     7.148255   14.728657    6.845700
C    22.808701   14.728656    6.831603
C     7.864854   15.971402    6.845037
C    12.147505   15.960225    6.854278
C    16.412804   15.965421    6.859472
C    33.496552   15.965497    6.861264
C     3.592995   15.959526    6.858667
C     9.303372   15.971436    6.843369
C    13.574581   15.959622    6.857337
C    17.838993   15.965476    6.860993
C     0.753900   15.965365    6.860666
C     5.020337   15.960142    6.858495
C    20.677117   15.959566    6.855195
C    29.230216   15.960199    6.855042
C    30.657505   15.959684    6.854659
C    22.104089   15.960096    6.848745
C     7.155619   17.200739    6.846739
C     5.732519   17.196997    6.856924
C    10.012562   17.200808    6.844374
C    14.285402   17.196153    6.859185
C     1.461173   17.195623    6.850946
C    11.435534   17.197071    6.853826
C    15.705845   17.195671    6.850371
C    32.789153   17.195684    6.850017
C     2.881946   17.196057    6.859885
C    18.546084   17.195634    6.851365
C    31.368369   17.196135    6.855235
C    19.966507   17.196026    6.858141
C    22.816083   17.196982    6.848062
C     7.868004   18.427112    6.857137
C    12.145527   18.431720    6.855848
C     5.022303   18.431623    6.857509
C     9.300217   18.427116    6.856974
C     3.592622   18.431195    6.858440
C    16.412531   18.425582    6.863632
C    33.496127   18.425514    6.864442
C    13.574912   18.431297    6.857758
C     0.754175   18.425552    6.863907
C    20.676908   18.431128    6.856072
C    17.839395   18.425484    6.864903
C    30.657846   18.431260    6.854235
C    29.228301   18.431791    6.853462
C    22.106178   18.431605    6.853640
C    10.012524   19.660635    6.854381
C     7.155677   19.660594    6.854332
C     5.730944   19.660506    6.846521
C    11.437104   19.660644    6.845935
C     1.463993   19.661101    6.861618
C    14.281944   19.660910    6.850144
C     2.885349   19.660805    6.850246
C    15.702959   19.661122    6.861910
C    32.786120   19.661173    6.863201
C    18.549156   19.661053    6.863895
C    31.364886   19.660976    6.848738
C    19.970088   19.660770    6.850609
C    22.814422   19.660519    6.845260
C    27.095138   19.660611    6.849678
C    28.519730   19.660640    6.843371
C    24.238842   19.660525    6.851938
Li    0.028752   19.646436    4.972314
Li    0.028768   14.714050    4.972410
Li    0.028924    9.780805    4.972288
Li    0.028766    4.849427    4.971308
Li    4.298165   17.183325    4.970140
Li    4.297970   12.243386    4.970119
Li    4.297541    7.321440    4.965837
Li    4.297743    2.378415    4.967866
Li    8.585533    4.849917    4.958118
Li    8.587025    9.781104    4.960967
Li    8.585374   14.715801    4.967575
Li    8.587030   19.645598    4.965544
Li   12.875630   17.183596    4.968366
Li   12.875961   12.242956    4.968323
Li   12.876502    7.321766    4.964710
Li   12.876231    2.378154    4.966798
Li   17.137700   19.646613    4.972190
Li   17.137598   14.713957    4.971167
Li   17.137368    9.780599    4.972168
Li   17.137700    4.849325    4.972448
Li   21.385393   17.184027    4.965243
Li   21.385717   12.242615    4.967235
Li   21.386297    7.321853    4.969471
Li   21.385878    2.377920    4.969458
Li   25.658107   19.647012    4.961101
Li   25.663686   14.714430    4.958129
Li   25.658122    9.779806    4.965736
Li   25.663602    4.851222    4.967596
Li   29.934653   17.183208    4.965512
Li   29.934336   12.243535    4.967583
Li   29.933865    7.320936    4.969067
Li   29.934106    2.378942    4.968914
C    10.010388    4.865261    3.087038
C     7.157210    4.865209    3.087455
C     7.868913    6.101427    3.088118
C     9.298705    6.101470    3.088151
C    27.094475   14.729019    3.086739
C    24.241754   14.729008    3.085694
C    24.953332   15.965220    3.087150
C    26.382960   15.965223    3.087957
C     7.868803    3.628819    3.083578
C     9.298794    3.628859    3.083608
C    11.430021    7.331492    3.079163
C    10.007091    7.331552    3.092273
C     7.160561    7.331530    3.092112
C     7.868886    8.561375    3.072955
C     9.298748    8.561374    3.072923
C    24.953197   13.492652    3.082631
C    26.383007   13.492670    3.083465
C    28.513862   17.195317    3.076310
C    27.091080   17.195376    3.091289
C    24.245119   17.195289    3.090916
C    24.953224   18.425127    3.072257
C    26.382942   18.425239    3.073434
C     7.868990    1.168882    3.076881
C     9.298587    1.168929    3.076784
C    12.141081    1.163315    3.074318
C     5.026410    1.163188    3.074869
C    33.495647    1.169446    3.077906
C     3.596909    1.163161    3.073632
C    16.412043    1.169277    3.079004
C     0.755251    1.169296    3.079511
C    13.570530    1.163226    3.072589
C    17.840788    1.169327    3.078046
C    20.682116    1.163424    3.073610
C    29.224835    1.163556    3.072407
C    30.654169    1.163640    3.073604
C    24.953321    1.169343    3.074499
C    22.111399    1.163486    3.074179
C    26.382778    1.169305    3.075425
C    10.007070    2.398792    3.091029
C     7.160536    2.398741    3.090916
C     5.737540    2.399033    3.079481
C    14.281771    2.399389    3.073963
C     2.885677    2.399320    3.075482
C    11.430041    2.399139    3.079760
C    31.365100    2.399651    3.076822
C     1.463102    2.399425    3.087968
C    18.548653    2.399444    3.087257
C    32.787661    2.399569    3.087224
C    15.704294    2.399437    3.087324
C    22.822375    2.399334    3.081016
C    27.090904    2.399130    3.092589
C    19.971117    2.399483    3.076387
C    28.513671    2.399446    3.078871
C    24.245128    2.399102    3.092830
C    12.141343    3.635036    3.080765
C    33.495444    3.629548    3.075364
C     3.597054    3.635120    3.077061
C    16.411950    3.629510    3.077179
C    20.682290    3.635218    3.079083
C    30.653979    3.635358    3.078719
C     0.755389    3.629525    3.076926
C     5.026178    3.634955    3.081232
C    13.570415    3.635216    3.076136
C    17.841013    3.629432    3.076380
C    29.225014    3.635359    3.082141
C    24.953205    3.629102    3.089725
C    22.111194    3.635148    3.084194
C    26.382899    3.629164    3.090281
C    27.094280    4.865367    3.093509
C    31.361933    4.865452    3.086820
C     1.466346    4.865450    3.078243
C    14.278495    4.865318    3.085715
C    18.551950    4.865431    3.076687
C    22.818971    4.865211    3.097372
C    28.517139    4.865355    3.096375
C    32.784455    4.865577    3.075879
C     2.888966    4.865261    3.086652
C    11.433376    4.865202    3.093583
C    15.701053    4.865427    3.078350
C    19.974396    4.865282    3.087260
C    24.241779    4.865299    3.092907
C     5.734211    4.865109    3.093940
C    24.953256    6.101352    3.093440
C    29.224897    6.095365    3.079230
C    33.495625    6.101363    3.077632
C    16.412003    6.101184    3.079219
C    20.682166    6.095310    3.075772
C    26.382781    6.101371    3.093982
C    30.654106    6.095509    3.075540
C     0.755362    6.101241    3.078990
C    17.840851    6.101225    3.078632
C    22.111268    6.095251    3.081158
C     3.597015    6.095309    3.073158
C    12.141221    6.095395    3.077574
C    13.570511    6.095376    3.072088
C     5.026355    6.095291    3.078132
C    24.245046    7.331276    3.095366
C    22.822313    7.331236    3.081707
C    27.090903    7.331375    3.095138
C    31.365154    7.331392    3.076198
C    18.548571    7.331205    3.086678
C    28.513655    7.331400    3.079725
C    32.787750    7.331325    3.086643
C    15.704213    7.331279    3.085927
C    19.971030    7.331232    3.075648
C     1.463255    7.331291    3.086627
C    14.281697    7.331452    3.071600
C     2.885833    7.331385    3.073250
C     5.737636    7.331431    3.078893
C    24.953146    8.561001    3.076602
C    29.224955    8.567105    3.076356
C    22.111179    8.566931    3.077939
C    26.382826    8.561114    3.077499
C    20.682108    8.567086    3.076462
C    33.495682    8.561405    3.074976
C    16.411824    8.561485    3.075682
C    30.654105    8.567165    3.076559
C    17.840779    8.561338    3.075252
C     3.597204    8.567329    3.073711
C     0.755527    8.561497    3.076178
C    13.570350    8.567408    3.072559
C    12.141142    8.567237    3.074523
C     5.026461    8.567190    3.075054
C    27.093928    9.797015    3.075432
C    24.241963    9.796969    3.073949
C    22.819110    9.796949    3.085427
C    28.516859    9.797037    3.085164
C    18.551690    9.797276    3.076083
C    31.362066    9.797178    3.086194
C    19.974239    9.797077    3.085955
C    32.784707    9.797353    3.076217
C    15.700952    9.797433    3.077591
C     1.466482    9.797402    3.078261
C    14.278302    9.797357    3.084600
C     2.889202    9.797300    3.085884
C     5.734667    9.797273    3.084190
C    10.010022    9.797407    3.071407
C    11.432996    9.797346    3.083599
C     7.157649    9.797366    3.072104
C    24.953273   11.032686    3.076086
C    26.382710   11.032628    3.077230
C    29.224953   11.027023    3.073073
C    22.111226   11.026998    3.074120
C    16.411835   11.033125    3.079142
C    20.681903   11.026988    3.073512
C    33.495906   11.033135    3.078328
C    17.840587   11.033079    3.078300
C    30.654377   11.027143    3.074034
C     0.755531   11.033104    3.079862
C     3.597177   11.027246    3.074147
C    12.140936   11.027449    3.074276
C    13.570351   11.027298    3.072635
C     7.869013   11.033146    3.076039
C     5.026630   11.027343    3.075354
C     9.298624   11.033185    3.075796
C    27.091012   12.262541    3.090053
C    24.245056   12.262565    3.089628
C    22.822236   12.262860    3.078086
C    31.365465   12.263181    3.076376
C    19.970799   12.263118    3.075164
C    28.513841   12.262894    3.076960
C    14.281479   12.263391    3.074655
C    18.548336   12.263176    3.086764
C     1.463453   12.263275    3.088771
C    15.703991   12.263328    3.087325
C    32.788011   12.263210    3.087573
C     5.737736   12.263165    3.082614
C    10.006973   12.262950    3.094250
C     2.886004   12.263300    3.076815
C    11.429845   12.263253    3.082150
C     7.160628   12.262902    3.094637
C    29.225293   13.498875    3.078926
C    16.411635   13.493372    3.076429
C    20.682046   13.498875    3.076503
C    33.495811   13.493227    3.076155
C     3.597309   13.499089    3.079071
C    13.570149   13.499202    3.077531
C    17.840698   13.493244    3.075375
C    22.111020   13.498769    3.080096
C    30.654313   13.498911    3.076994
C     0.755735   13.493336    3.077919
C    12.141111   13.499097    3.083728
C     7.868851   13.492943    3.090946
C     5.026382   13.499019    3.084784
C     9.298710   13.492950    3.090741
C    10.010231   14.729188    3.093726
C    14.278228   14.729224    3.086552
C    18.551694   14.729225    3.075187
C    31.362228   14.729092    3.085507
C     1.466566   14.729272    3.079295
C     5.734319   14.729058    3.098523
C    11.433199   14.729138    3.097709
C    15.700794   14.729298    3.077772
C    19.974196   14.729028    3.085015
C    28.517400   14.728986    3.091903
C    32.784779   14.729261    3.076183
C     2.889180   14.729124    3.088159
C     7.157305   14.729127    3.094502
C    22.818879   14.728901    3.092219
C     7.868913   15.965172    3.094530
C    12.141024   15.959178    3.080744
C    16.411776   15.965026    3.078634
C    33.495855   15.965125    3.078211
C     3.597151   15.959125    3.075688
C     9.298598   15.965235    3.094328
C    13.570265   15.959206    3.074214
C    17.840622   15.965084    3.077474
C     0.755540   15.965016    3.080025
C     5.026432   15.959086    3.081774
C    20.682002   15.959119    3.072632
C    29.225177   15.959134    3.075651
C    30.654400   15.959242    3.072976
C    22.111192   15.959074    3.076981
C     7.160536   17.195139    3.097207
C     5.737648   17.195085    3.083407
C    10.006999   17.195192    3.096746
C    14.281533   17.195192    3.074075
C     1.463330   17.195066    3.088183
C    11.429872   17.195167    3.082934
C    15.704063   17.195090    3.086854
C    32.787895   17.195148    3.086376
C     2.885893   17.195115    3.076075
C    18.548443   17.195078    3.085555
C    31.365378   17.195254    3.074184
C    19.970909   17.195161    3.073072
C    22.822316   17.195187    3.077560
C     7.868816   18.424854    3.078235
C    12.141076   18.430826    3.078245
C     5.026406   18.430755    3.079257
C     9.298689   18.424860    3.077915
C     3.597134   18.430934    3.077134
C    16.411828   18.425269    3.076472
C    33.495645   18.425259    3.075215
C    13.570305   18.431040    3.075795
C     0.755479   18.425259    3.077202
C    20.682136   18.431062    3.073666
C    17.840787   18.425219    3.075049
C    30.654199   18.431138    3.074158
C    29.225048   18.431105    3.073274
C    22.111256   18.430925    3.074393
C    10.010004   19.660798    3.075144
C     7.157568   19.660791    3.076018
C     5.734550   19.660748    3.087098
C    11.432989   19.660838    3.086385
C     1.466304   19.661137    3.078982
C    14.278386   19.660948    3.086171
C     2.889004   19.660865    3.087343
C    15.701019   19.661151    3.078316
C    32.784579   19.661257    3.075782
C    18.551812   19.661165    3.075474
C    31.361968   19.661195    3.084874
C    19.974372   19.661045    3.084601
C    22.819208   19.661013    3.082660
C    27.093994   19.661179    3.071720
C    28.516892   19.661129    3.082369
C    24.242066   19.661130    3.070172
