552       
Geometry optimisation iteration:    33
Li    6.370695    3.652100    8.703583
Li    3.829359    5.433981    8.942490
Li    2.175656    8.491133    8.729341
Li    0.673797    5.201780    8.921159
Li    6.570815    6.488477    8.836085
Li    3.104927    3.413145   10.643277
Li    5.987774    4.974744   11.444862
Li    2.286627    6.297127   11.469641
C    10.026089    4.865232    6.843985
C     7.169008    4.862090    6.796134
C     7.889164    6.105398    6.838513
C     9.316401    6.103742    6.845755
C    27.090627   14.729169    6.857081
C    24.241584   14.729246    6.858735
C    24.952116   15.965012    6.858574
C    26.380551   15.964973    6.857345
C     7.886467    3.622086    6.815702
C     9.314015    3.625800    6.839572
C    11.439775    7.333041    6.853200
C    10.020946    7.333744    6.835034
C     7.176192    7.343150    6.802889
C     7.884455    8.573940    6.827475
C     9.310465    8.568225    6.840319
C    24.951708   13.493274    6.858875
C    26.380059   13.493745    6.857894
C    28.509879   17.194583    6.857658
C    27.087807   17.194708    6.846718
C    24.244942   17.194774    6.848248
C    24.952078   18.424671    6.858937
C    26.380539   18.424264    6.857838
C     7.879749    1.158625    6.843246
C     9.308781    1.162939    6.849030
C    12.148641    1.161221    6.859012
C     5.028664    1.149953    6.835411
C    33.490603    1.164450    6.856139
C     3.597015    1.154264    6.844059
C    16.416863    1.168896    6.860823
C     0.751399    1.164319    6.858468
C    13.576796    1.162788    6.860642
C    17.845310    1.169157    6.861568
C    20.684486    1.163097    6.860718
C    29.219636    1.162187    6.859068
C    30.648303    1.161410    6.857470
C    24.951770    1.168831    6.859604
C    22.112714    1.162879    6.860635
C    26.380062    1.168247    6.858943
C    10.018176    2.395987    6.837497
C     7.172888    2.385378    6.809061
C     5.743415    2.385141    6.805960
C    14.288338    2.398617    6.860063
C     2.884685    2.390187    6.849860
C    11.438693    2.397583    6.855116
C    31.357720    2.396772    6.855769
C     1.461421    2.390036    6.847712
C    18.552617    2.399051    6.850427
C    32.780234    2.395505    6.844618
C    15.709474    2.399340    6.849771
C    22.822989    2.398910    6.860671
C    27.087039    2.398839    6.848954
C    19.974085    2.398975    6.860555
C    28.508126    2.397703    6.859733
C    24.244442    2.398696    6.849559
C    12.151163    3.634176    6.855560
C    33.486289    3.623202    6.849376
C     3.597881    3.627932    6.839608
C    16.417390    3.629361    6.860440
C    20.684365    3.634865    6.860840
C    30.645164    3.633051    6.856249
C     0.748591    3.623573    6.842884
C     5.031819    3.625840    6.781830
C    13.577398    3.635363    6.859379
C    17.845087    3.629276    6.861442
C    29.218863    3.634500    6.859033
C    24.951730    3.629050    6.860653
C    22.112327    3.634706    6.860976
C    26.379263    3.628722    6.859918
C    27.090271    4.865042    6.859965
C    31.351867    4.864783    6.842800
C     1.464175    4.860437    6.809663
C    14.285776    4.865567    6.848953
C    18.555735    4.865090    6.861481
C    22.819589    4.864825    6.850324
C    28.510088    4.864817    6.848773
C    32.770034    4.864437    6.846165
C     2.889473    4.860158    6.821791
C    11.443579    4.865743    6.841494
C    15.706323    4.865496    6.859999
C    19.977129    4.864842    6.850411
C    24.240760    4.864793    6.860858
C     5.746873    4.859981    6.757356
C    24.951581    6.100944    6.860988
C    29.218069    6.095554    6.858899
C    33.483984    6.102698    6.830960
C    16.417280    6.101308    6.860482
C    20.684220    6.095032    6.861092
C    26.378822    6.100957    6.860206
C    30.643402    6.095964    6.853435
C     0.745221    6.102976    6.798520
C    17.844963    6.101108    6.861440
C    22.112257    6.094959    6.861305
C     3.601835    6.098590    6.808707
C    12.151816    6.096646    6.855642
C    13.577979    6.095944    6.859248
C     5.033110    6.097651    6.842283
C    24.244157    7.331020    6.850357
C    22.822895    7.331030    6.861334
C    27.086422    7.330990    6.849587
C    31.356159    7.332629    6.849702
C    18.552339    7.331378    6.850581
C    28.506657    7.331616    6.859836
C    32.773883    7.335676    6.826357
C    15.709508    7.331529    6.849427
C    19.973771    7.331184    6.860885
C     1.458866    7.339209    6.802346
C    14.288845    7.332135    6.859217
C     2.887163    7.338875    6.818778
C     5.749897    7.345340    6.815241
C    24.951490    8.561007    6.860809
C    29.218587    8.567538    6.859097
C    22.112391    8.567297    6.861286
C    26.378927    8.561219    6.860022
C    20.684266    8.567387    6.861110
C    33.482528    8.567639    6.832943
C    16.417055    8.561934    6.860430
C    30.645097    8.569129    6.854131
C    17.845041    8.561470    6.861588
C     3.604290    8.581094    6.829106
C     0.745407    8.569226    6.822474
C    13.577035    8.568090    6.858792
C    12.150147    8.569649    6.855797
C     5.036612    8.582901    6.822699
C    27.089901    9.797111    6.859348
C    24.240918    9.797338    6.860423
C    22.819458    9.797370    6.850054
C    28.511033    9.797987    6.848798
C    18.555638    9.797802    6.861434
C    31.353963    9.800024    6.843011
C    19.977321    9.797655    6.850301
C    32.775234    9.801769    6.848183
C    15.706218    9.797822    6.859741
C     1.460973    9.813389    6.847553
C    14.284723    9.798743    6.848925
C     2.891866    9.813375    6.841862
C     5.742384    9.809331    6.816717
C    10.019707    9.802235    6.849926
C    11.441487    9.800196    6.845149
C     7.166997    9.808847    6.829185
C    24.951315   11.033045    6.859885
C    26.379569   11.033359    6.859062
C    29.218997   11.027915    6.859300
C    22.112559   11.027587    6.860568
C    16.416800   11.034226    6.860409
C    20.684278   11.027781    6.860482
C    33.487726   11.041277    6.853715
C    17.845285   11.033809    6.861350
C    30.647251   11.029582    6.857289
C     0.748370   11.045387    6.857734
C     3.601588   11.042061    6.857911
C    12.148104   11.029805    6.859289
C    13.576881   11.028620    6.860373
C     7.877148   11.040623    6.845761
C     5.032073   11.038416    6.845644
C     9.306711   11.038656    6.851725
C    27.086845   12.263227    6.847814
C    24.244584   12.263386    6.848897
C    22.822799   12.263352    6.860152
C    31.358034   12.266334    6.856299
C    19.974260   12.263660    6.860145
C    28.508609   12.264214    6.858884
C    14.287406   12.264897    6.860407
C    18.552336   12.263856    6.850287
C     1.460367   12.272480    6.851270
C    15.709496   12.264089    6.849632
C    32.781042   12.267246    6.846115
C     5.743850   12.270585    6.854348
C    10.013794   12.266754    6.846747
C     2.885653   12.272395    6.861795
C    11.436562   12.265832    6.858848
C     7.166942   12.270161    6.842612
C    29.219377   13.500119    6.858258
C    16.416762   13.494197    6.860432
C    20.684376   13.499401    6.860170
C    33.490192   13.497560    6.859768
C     3.598578   13.505028    6.862536
C    13.576350   13.500422    6.860647
C    17.845213   13.493729    6.861405
C    22.112733   13.499333    6.860032
C    30.648412   13.500845    6.857807
C     0.751007   13.498267    6.861959
C    12.147187   13.501117    6.860415
C     7.875244   13.497013    6.859722
C     5.029276   13.504572    6.861530
C     9.304943   13.496434    6.859346
C    10.016118   14.730656    6.860745
C    14.283843   14.730119    6.849775
C    18.555685   14.729469    6.861204
C    31.356133   14.730670    6.847532
C     1.464196   14.732696    6.861119
C     5.738834   14.731736    6.852120
C    11.439274   14.730292    6.849931
C    15.705948   14.729697    6.859999
C    19.977571   14.729393    6.849744
C    28.512675   14.729812    6.846702
C    32.779107   14.730938    6.859868
C     2.887648   14.732976    6.851618
C     7.162338   14.731460    6.861835
C    22.819701   14.729265    6.848767
C     7.874692   15.965282    6.862545
C    12.146905   15.959512    6.861003
C    16.416573   15.965109    6.860541
C    33.491017   15.965900    6.859976
C     3.597930   15.960223    6.861984
C     9.304593   15.965071    6.861196
C    13.576260   15.959288    6.861165
C    17.845096   15.965208    6.861341
C     0.751546   15.966296    6.860747
C     5.028254   15.960071    6.862485
C    20.684564   15.959270    6.859989
C    29.219994   15.959169    6.857571
C    30.649240   15.959443    6.857735
C    22.112826   15.959225    6.859765
C     7.165308   17.192533    6.850413
C     5.741796   17.193030    6.860421
C    10.013200   17.194117    6.849777
C    14.287045   17.194623    6.860992
C     1.461189   17.194119    6.848889
C    11.436341   17.194086    6.860090
C    15.709086   17.194904    6.850006
C    32.782756   17.194528    6.847632
C     2.884378   17.194646    6.859726
C    18.552521   17.194920    6.850217
C    31.359843   17.194409    6.856829
C    19.974379   17.194992    6.859810
C    22.823094   17.194955    6.859499
C     7.875505   18.420981    6.858108
C    12.147422   18.429670    6.860840
C     5.028638   18.426310    6.855577
C     9.305532   18.421532    6.859070
C     3.597883   18.427222    6.855627
C    16.416605   18.424665    6.860851
C    33.491238   18.422713    6.858484
C    13.576382   18.430318    6.861383
C     0.751557   18.423019    6.858529
C    20.684605   18.430715    6.859942
C    17.845257   18.424853    6.861570
C    30.649405   18.429990    6.857333
C    29.220249   18.430102    6.857785
C    22.112818   18.430663    6.859744
C    10.017914   19.657688    6.856759
C     7.164213   19.652405    6.848363
C     5.739212   19.652908    6.836399
C    11.440743   19.658771    6.848629
C     1.463842   19.655956    6.856000
C    14.284014   19.659926    6.850235
C     2.887476   19.655616    6.841520
C    15.706124   19.660753    6.860453
C    32.779659   19.658716    6.857340
C    18.555788   19.660699    6.861488
C    31.356484   19.658767    6.846403
C    19.977716   19.660700    6.850028
C    22.819629   19.660613    6.849155
C    27.090920   19.660401    6.858001
C    28.512698   19.659469    6.847518
C    24.241513   19.660408    6.859287
Li    0.029651   19.655734    4.969151
Li    0.029502   14.731241    4.971911
Li    0.018593    9.822182    4.964822
Li    0.007472    4.845885    4.957627
Li    4.310485   17.190471    4.968950
Li    4.309479   12.276580    4.970418
Li    4.317544    7.341008    4.953104
Li    4.293827    2.370370    4.951655
Li    8.619467    4.872669    4.950006
Li    8.600274    9.809599    4.957458
Li    8.590709   14.731188    4.971535
Li    8.595520   19.647121    4.966612
Li   12.866096   17.192958    4.972426
Li   12.866392   12.264517    4.970980
Li   12.868905    7.330846    4.967776
Li   12.868218    2.398969    4.969358
Li   17.139627   19.661248    4.971672
Li   17.139992   14.729459    4.971128
Li   17.139604    9.796290    4.972102
Li   17.139225    4.864644    4.972620
Li   21.403368   17.193124    4.968972
Li   21.403180   12.263328    4.970096
Li   21.402835    7.331712    4.972844
Li   21.403053    2.397821    4.971921
Li   25.661231   19.660582    4.968808
Li   25.661106   14.729187    4.967862
Li   25.660423    9.795820    4.970716
Li   25.660445    4.863928    4.971985
Li   29.926739   17.192773    4.969749
Li   29.925921   12.265229    4.969790
Li   29.916524    7.331067    4.969964
Li   29.924083    2.396622    4.970053
C    10.010958    4.864604    3.067815
C     7.157542    4.864517    3.087462
C     7.869074    6.101025    3.079903
C     9.299321    6.101203    3.069775
C    27.093233   14.728470    3.078813
C    24.241724   14.728313    3.077463
C    24.953186   15.964325    3.077409
C    26.382072   15.964351    3.077910
C     7.869046    3.628233    3.083717
C     9.299141    3.627988    3.073752
C    11.430247    7.330966    3.073848
C    10.007334    7.331360    3.082254
C     7.161197    7.331289    3.094040
C     7.869196    8.561338    3.078644
C     9.298877    8.561276    3.072872
C    24.953087   13.492275    3.078154
C    26.381988   13.492359    3.078557
C    28.512305   17.194257    3.077562
C    27.089996   17.194321    3.088547
C    24.245209   17.194406    3.088247
C    24.953149   18.424354    3.077784
C    26.382098   18.424302    3.078227
C     7.868976    1.167908    3.082212
C     9.298685    1.167838    3.079432
C    12.141144    1.162270    3.079431
C     5.026370    1.161817    3.074116
C    33.493646    1.167934    3.078397
C     3.596451    1.161697    3.070229
C    16.412406    1.168594    3.082299
C     0.754052    1.167940    3.077703
C    13.570194    1.162235    3.079850
C    17.841325    1.168667    3.081500
C    20.683199    1.162758    3.081329
C    29.223075    1.162056    3.078656
C    30.651995    1.162194    3.079774
C    24.953201    1.168389    3.078968
C    22.111733    1.162637    3.080258
C    26.381904    1.168262    3.079018
C    10.007265    2.397948    3.087815
C     7.160591    2.397920    3.096776
C     5.737531    2.398076    3.084060
C    14.281897    2.398465    3.079506
C     2.884882    2.398093    3.076876
C    11.430018    2.398075    3.077762
C    31.362870    2.398112    3.080989
C     1.461937    2.398059    3.090210
C    18.549570    2.398735    3.092693
C    32.785415    2.398020    3.090161
C    15.704307    2.398615    3.092189
C    22.822958    2.398492    3.080693
C    27.089727    2.398226    3.090023
C    19.971837    2.398671    3.082364
C    28.511901    2.398255    3.078779
C    24.245186    2.398336    3.090788
C    12.141486    3.634183    3.075301
C    33.493229    3.628050    3.079260
C     3.596369    3.634306    3.087022
C    16.412380    3.628667    3.081723
C    20.682892    3.634472    3.082176
C    30.651888    3.634356    3.081064
C     0.753894    3.628219    3.084060
C     5.026055    3.634120    3.089636
C    13.570639    3.634353    3.077249
C    17.841480    3.628580    3.081398
C    29.222910    3.634281    3.079698
C    24.953005    3.628309    3.080236
C    22.111771    3.634364    3.081464
C    26.381954    3.628355    3.080276
C    27.092861    4.864372    3.080792
C    31.359380    4.864404    3.092920
C     1.465161    4.864443    3.093979
C    14.278641    4.864436    3.088977
C    18.552762    4.864466    3.081243
C    22.819472    4.864447    3.092169
C    28.515252    4.864374    3.090849
C    32.781884    4.864585    3.081883
C     2.888003    4.864157    3.106027
C    11.433841    4.864450    3.081461
C    15.701204    4.864428    3.081409
C    19.975084    4.864473    3.092898
C    24.241833    4.864388    3.080723
C     5.734373    4.864171    3.103929
C    24.952963    6.100417    3.080503
C    29.222894    6.094551    3.079993
C    33.493378    6.100781    3.089972
C    16.412355    6.100303    3.081157
C    20.682912    6.094498    3.082434
C    26.381895    6.100400    3.080466
C    30.651956    6.094693    3.083445
C     0.753864    6.100504    3.097496
C    17.841442    6.100380    3.081140
C    22.111751    6.094461    3.081716
C     3.596211    6.094251    3.095127
C    12.141526    6.094821    3.073384
C    13.570687    6.094566    3.076066
C     5.026367    6.094361    3.091096
C    24.245186    7.330465    3.091331
C    22.822930    7.330368    3.081166
C    27.089432    7.330628    3.090384
C    31.362998    7.330790    3.086890
C    18.549459    7.330281    3.092410
C    28.511750    7.330719    3.078960
C    32.785669    7.330794    3.102050
C    15.704417    7.330424    3.091010
C    19.971878    7.330254    3.082541
C     1.461750    7.330705    3.112126
C    14.281877    7.330601    3.077726
C     2.884639    7.330745    3.096259
C     5.738047    7.330944    3.086372
C    24.952989    8.560537    3.080083
C    29.222900    8.566881    3.079768
C    22.111807    8.566280    3.081066
C    26.381822    8.560661    3.080110
C    20.683015    8.566192    3.081799
C    33.493672    8.561000    3.091321
C    16.412304    8.560558    3.081398
C    30.652008    8.566756    3.083554
C    17.841409    8.560356    3.081078
C     3.596507    8.567346    3.090407
C     0.754026    8.560975    3.098128
C    13.570491    8.566809    3.077460
C    12.141287    8.566851    3.075822
C     5.026595    8.567514    3.084615
C    27.092930    9.796580    3.080415
C    24.241788    9.796291    3.080041
C    22.819686    9.796231    3.091202
C    28.515082    9.796786    3.090511
C    18.552811    9.796371    3.080978
C    31.359790    9.797145    3.092934
C    19.975164    9.796239    3.092123
C    32.782402    9.796991    3.082745
C    15.701004    9.796669    3.082206
C     1.465519    9.797230    3.093422
C    14.278468    9.796735    3.090771
C     2.888437    9.797515    3.103086
C     5.734795    9.797463    3.094185
C    10.010430    9.797030    3.071383
C    11.433077    9.796988    3.085405
C     7.157649    9.797264    3.079195
C    24.953126   11.032299    3.079599
C    26.381796   11.032336    3.079850
C    29.223095   11.026892    3.079396
C    22.111711   11.026184    3.080202
C    16.412277   11.032517    3.082192
C    20.683079   11.026263    3.081015
C    33.493806   11.033552    3.079283
C    17.841307   11.032416    3.081351
C    30.652142   11.026989    3.080356
C     0.754384   11.033470    3.084010
C     3.596786   11.027353    3.087153
C    12.141138   11.026973    3.077801
C    13.570214   11.026876    3.079508
C     7.868940   11.033116    3.074452
C     5.026442   11.027272    3.084137
C     9.298736   11.033251    3.071336
C    27.089806   12.262418    3.089675
C    24.245152   12.262160    3.089743
C    22.822968   12.262225    3.079344
C    31.363272   12.263115    3.079906
C    19.971646   12.262325    3.081177
C    28.512119   12.262523    3.078471
C    14.281613   12.262692    3.080614
C    18.549403   12.262431    3.092033
C     1.462481   12.263395    3.093534
C    15.704130   12.262686    3.092685
C    32.785949   12.263296    3.089556
C     5.737642   12.263074    3.080437
C    10.006831   12.262874    3.086072
C     2.885426   12.263275    3.083474
C    11.429768   12.262912    3.078543
C     7.160709   12.262994    3.088198
C    29.223341   13.498693    3.078218
C    16.412134   13.492555    3.082217
C    20.682867   13.498254    3.079854
C    33.494191   13.493109    3.079076
C     3.596655   13.499030    3.079339
C    13.570236   13.498665    3.080618
C    17.841281   13.492435    3.080943
C    22.111675   13.498158    3.078851
C    30.652424   13.498726    3.078870
C     0.754426   13.493183    3.080704
C    12.140921   13.498600    3.080117
C     7.868878   13.492888    3.077763
C     5.026366   13.498877    3.078611
C     9.298507   13.492878    3.077099
C    10.009976   14.728623    3.078786
C    14.278285   14.728456    3.092911
C    18.552721   14.728218    3.079981
C    31.360310   14.728630    3.089373
C     1.465718   14.728744    3.080475
C     5.734480   14.728662    3.088631
C    11.432792   14.728635    3.090877
C    15.700814   14.728268    3.083208
C    19.974889   14.728183    3.090480
C    28.515634   14.728483    3.089069
C    32.782886   14.728726    3.078782
C     2.888467   14.728695    3.089764
C     7.157424   14.728655    3.078653
C    22.819652   14.728260    3.088734
C     7.868858   15.964344    3.077711
C    12.140894   15.958446    3.081052
C    16.412235   15.964095    3.082218
C    33.494264   15.964306    3.078423
C     3.596706   15.958262    3.077410
C     9.298393   15.964458    3.077907
C    13.570039   15.958285    3.081461
C    17.841092   15.964142    3.080784
C     0.754339   15.964220    3.078998
C     5.026219   15.958294    3.077008
C    20.683042   15.958335    3.079558
C    29.223582   15.958465    3.077815
C    30.652443   15.958444    3.078583
C    22.111584   15.958316    3.078233
C     7.160533   17.194068    3.087615
C     5.737621   17.193911    3.076944
C    10.006807   17.194148    3.089062
C    14.281476   17.194161    3.081597
C     1.462513   17.193883    3.088344
C    11.429580   17.194104    3.080972
C    15.703989   17.194017    3.093011
C    32.785986   17.193988    3.089149
C     2.885349   17.193790    3.077093
C    18.549435   17.194174    3.091567
C    31.363431   17.194008    3.079351
C    19.971710   17.194239    3.080517
C    22.823099   17.194373    3.077998
C     7.868865   18.423856    3.076592
C    12.140838   18.429940    3.080751
C     5.026372   18.429592    3.075404
C     9.298601   18.423823    3.076347
C     3.596735   18.429483    3.074810
C    16.412158   18.424166    3.082435
C    33.493931   18.423625    3.077253
C    13.570114   18.429905    3.081281
C     0.754244   18.423689    3.076951
C    20.683026   18.430251    3.080049
C    17.841355   18.424079    3.081039
C    30.652232   18.429732    3.078980
C    29.223312   18.429919    3.078096
C    22.111886   18.430347    3.078767
C    10.010122   19.659774    3.077723
C     7.157571   19.659637    3.079191
C     5.734517   19.659464    3.086677
C    11.432933   19.659727    3.090085
C     1.465406   19.659493    3.076150
C    14.278248   19.660006    3.092522
C     2.888464   19.659268    3.083329
C    15.700852   19.660043    3.083201
C    32.782490   19.659613    3.078032
C    18.552904   19.660253    3.080790
C    31.359894   19.659640    3.089816
C    19.975122   19.660264    3.091512
C    22.819802   19.660239    3.089736
C    27.093092   19.659936    3.079086
C    28.515397   19.659894    3.089332
C    24.241928   19.660120    3.078310
