560       
Geometry optimisation iteration:     4
Li    0.024539   19.658242    8.736197
Li    0.024607   14.725389    8.736482
Li    0.024568    9.791137    8.736234
Li    0.024351    4.860894    8.735508
Li   17.148892   19.657705    8.736783
Li   17.148673   14.725390    8.735980
Li   17.149158    9.791740    8.736698
Li   17.149412    4.860947    8.737007
Li    8.590610    4.862134    8.728277
Li    8.590680    9.788405    8.731182
Li    8.590747   14.724758    8.736084
Li    8.590585   19.660527    8.734824
Li   25.653814   19.654866    8.732311
Li   25.653726   14.726324    8.729298
Li   25.653794    9.793989    8.735958
Li   25.653819    4.860259    8.737138
C    10.018968    4.866120    6.831321
C     7.149474    4.866136    6.833624
C     7.866122    6.105913    6.833860
C     9.302105    6.105958    6.832948
C    27.101582   14.729953    6.834536
C    24.233404   14.729937    6.833348
C    24.949926   15.969834    6.834015
C    26.385378   15.969708    6.835056
C     7.865982    3.625978    6.834672
C     9.302218    3.625942    6.833775
C    11.432830    7.332133    6.846890
C    10.014490    7.331634    6.830051
C     7.153725    7.331628    6.832522
C     7.865975    8.557435    6.835705
C     9.302229    8.557396    6.834733
C    24.949792   13.489719    6.834706
C    26.385454   13.489879    6.835682
C    28.515275   17.196020    6.851773
C    27.097276   17.195547    6.833796
C    24.237947   17.195473    6.832885
C    24.949754   18.421224    6.835987
C    26.385502   18.421435    6.836972
C     7.866079    1.174384    6.837535
C     9.302103    1.174441    6.836618
C    12.143286    1.165245    6.851849
C     5.024898    1.165187    6.854088
C    33.491349    1.174464    6.839597
C     3.599380    1.165091    6.855344
C    16.409275    1.174215    6.842597
C     0.758116    1.174240    6.841614
C    13.568662    1.165072    6.855788
C    17.845005    1.174369    6.840523
C    20.685187    1.165047    6.854033
C    29.225523    1.164975    6.854137
C    30.650647    1.165194    6.852558
C    24.949862    1.174044    6.837558
C    22.110039    1.164915    6.854572
C    26.385404    1.173899    6.838419
C    10.014462    2.400205    6.831082
C     7.153739    2.400191    6.833555
C     5.735340    2.400541    6.850832
C    14.278819    2.400582    6.856246
C     2.889005    2.400546    6.855418
C    11.432842    2.400581    6.848624
C    31.360727    2.400594    6.851315
C     1.470466    2.400171    6.839170
C    18.557213    2.400121    6.837579
C    32.778928    2.400207    6.836325
C    15.697144    2.400198    6.841200
C    22.819958    2.400354    6.854634
C    27.097262    2.399979    6.837895
C    19.975181    2.400487    6.854251
C    28.515378    2.400451    6.855777
C    24.237836    2.399950    6.837361
C    12.143320    3.635830    6.846815
C    33.491164    3.625974    6.839785
C     3.599578    3.635875    6.851363
C    16.409244    3.626132    6.843182
C    20.685261    3.635750    6.852350
C    30.650558    3.635831    6.850548
C     0.758167    3.626072    6.841730
C     5.024904    3.635825    6.849091
C    13.568497    3.635940    6.851885
C    17.845175    3.625922    6.841209
C    29.225682    3.635804    6.852976
C    24.949708    3.625831    6.840890
C    22.109868    3.635660    6.853636
C    26.385483    3.626020    6.841695
C    27.101694    4.866169    6.841287
C    31.354369    4.866356    6.833755
C     1.474666    4.866207    6.840154
C    14.272787    4.866386    6.837019
C    18.561818    4.866193    6.838337
C    22.813315    4.866221    6.837719
C    28.521786    4.866294    6.838445
C    32.774472    4.866258    6.837517
C     2.895189    4.866345    6.836475
C    11.439272    4.866295    6.829286
C    15.693050    4.866228    6.842306
C    19.981747    4.866281    6.836089
C    24.233188    4.866114    6.840542
C     5.729129    4.866259    6.831353
C    24.949808    6.106097    6.841567
C    29.225632    6.096861    6.855187
C    33.491385    6.106166    6.838725
C    16.409330    6.105992    6.841908
C    20.685067    6.096903    6.853928
C    26.385325    6.105976    6.842348
C    30.650729    6.096952    6.852219
C     0.758104    6.106009    6.840535
C    17.845014    6.106142    6.840080
C    22.109895    6.096861    6.855771
C     3.599507    6.096860    6.852180
C    12.143215    6.096862    6.847844
C    13.568568    6.096873    6.852672
C     5.025008    6.096781    6.850147
C    24.237841    7.331926    6.839920
C    22.819928    7.332250    6.855895
C    27.097275    7.331965    6.840398
C    31.360889    7.332252    6.850706
C    18.557063    7.331913    6.836774
C    28.515438    7.332292    6.857001
C    32.779090    7.331889    6.835689
C    15.697137    7.331917    6.839828
C    19.975007    7.332255    6.853545
C     1.470473    7.331908    6.837915
C    14.278806    7.332283    6.854194
C     2.889016    7.332239    6.853472
C     5.735368    7.332104    6.849139
C    24.949721    8.557846    6.841862
C    29.225687    8.567731    6.853544
C    22.109879    8.567674    6.854054
C    26.385475    8.558014    6.842662
C    20.685176    8.567613    6.852344
C    33.491346    8.557676    6.839888
C    16.409103    8.557951    6.842477
C    30.650676    8.567604    6.850855
C    17.845022    8.557714    6.840711
C     3.599583    8.567594    6.850898
C     0.758307    8.557922    6.841543
C    13.568489    8.567658    6.851241
C    12.143306    8.567496    6.846973
C     5.024916    8.567496    6.849271
C    27.101553    9.798208    6.840451
C    24.233338    9.798219    6.839509
C    22.813429    9.798305    6.837289
C    28.521658    9.798297    6.838290
C    18.561683    9.798104    6.838375
C    31.354416    9.798297    6.834678
C    19.981738    9.798288    6.836374
C    32.774653    9.798099    6.838358
C    15.692996    9.798122    6.842275
C     1.474702    9.798128    6.840894
C    14.272750    9.798213    6.837797
C     2.895195    9.798201    6.837689
C     5.729064    9.798106    6.834067
C    10.018952    9.797784    6.833711
C    11.439351    9.798140    6.831835
C     7.149501    9.797764    6.836205
C    24.949873   11.038203    6.837725
C    26.385310   11.038048    6.838677
C    29.225427   11.028936    6.854330
C    22.110128   11.028987    6.854278
C    16.409198   11.038003    6.842222
C    20.685237   11.028968    6.853672
C    33.491465   11.038122    6.839971
C    17.844897   11.038120    6.840111
C    30.650610   11.028997    6.852792
C     0.758183   11.037990    6.841976
C     3.599308   11.028839    6.855644
C    12.143306   11.028834    6.851611
C    13.568691   11.028808    6.855540
C     7.866122   11.037715    6.837385
C     5.024876   11.028742    6.854336
C     9.302126   11.037774    6.836308
C    27.097202   12.263957    6.834597
C    24.237965   12.263965    6.833749
C    22.820184   12.264321    6.851598
C    31.360769   12.264359    6.850962
C    19.975123   12.264323    6.852784
C    28.515219   12.264335    6.853415
C    14.278813   12.264288    6.856731
C    18.557047   12.263904    6.836609
C     1.470468   12.263928    6.840015
C    15.697054   12.263944    6.840760
C    32.779074   12.263918    6.836745
C     5.735233   12.264160    6.853909
C    10.014476   12.263712    6.834236
C     2.888923   12.264301    6.856876
C    11.432938   12.264210    6.851135
C     7.153747   12.263686    6.837035
C    29.225479   13.499673    6.849646
C    16.409016   13.489942    6.842271
C    20.685389   13.499568    6.849841
C    33.491403   13.489689    6.840560
C     3.599377   13.499611    6.854355
C    13.568631   13.499648    6.853881
C    17.844929   13.489694    6.840149
C    22.110123   13.499585    6.849410
C    30.650449   13.499602    6.849226
C     0.758336   13.489915    6.842656
C    12.143487   13.499505    6.850824
C     7.865981   13.489688    6.840696
C     5.024691   13.499499    6.853807
C     9.302235   13.489643    6.839614
C    10.019027   14.729976    6.838305
C    14.272780   14.730134    6.838399
C    18.561691   14.730018    6.837227
C    31.354356   14.730151    6.833034
C     1.474709   14.730003    6.841338
C     5.728896   14.730020    6.837970
C    11.439447   14.730060    6.835354
C    15.692927   14.730035    6.841815
C    19.981816   14.730124    6.834078
C    28.521596   14.730122    6.833097
C    32.774621   14.730052    6.838113
C     2.895101   14.730101    6.839057
C     7.149378   14.729918    6.840934
C    22.813610   14.730042    6.831621
C     7.866062   15.969881    6.841406
C    12.143414   15.960721    6.853057
C    16.409192   15.969801    6.841368
C    33.491475   15.970083    6.839345
C     3.599217   15.960656    6.855947
C     9.302100   15.969978    6.840365
C    13.568752   15.960671    6.855602
C    17.844850   15.970045    6.839053
C     0.758164   15.969827    6.841582
C     5.024726   15.960636    6.855910
C    20.685370   15.960699    6.850809
C    29.225403   15.960655    6.850792
C    30.650542   15.960777    6.850025
C    22.110247   15.960595    6.850596
C     7.153678   17.195815    6.839526
C     5.735136   17.196075    6.855068
C    10.014522   17.195851    6.836801
C    14.278964   17.196090    6.856180
C     1.470368   17.195774    6.839283
C    11.433016   17.196128    6.852403
C    15.697199   17.195765    6.840191
C    32.779034   17.195829    6.835454
C     2.888805   17.196078    6.856185
C    18.557099   17.195763    6.835519
C    31.360752   17.196124    6.848956
C    19.975169   17.196009    6.850962
C    22.820171   17.195912    6.849967
C     7.865961   18.421779    6.841680
C    12.143480   18.431491    6.851034
C     5.024683   18.431477    6.853648
C     9.302233   18.421725    6.840651
C     3.599288   18.431452    6.853809
C    16.409178   18.421761    6.842600
C    33.491274   18.421617    6.839932
C    13.568701   18.431486    6.853820
C     0.758219   18.421762    6.842273
C    20.685403   18.431276    6.849233
C    17.845091   18.421587    6.840229
C    30.650478   18.431418    6.848245
C    29.225534   18.431386    6.849414
C    22.110112   18.431244    6.849400
C    10.018954   19.662015    6.837320
C     7.149458   19.662022    6.839695
C     5.728962   19.662085    6.837019
C    11.439372   19.662129    6.834862
C     1.474592   19.661938    6.841314
C    14.272837   19.662058    6.839034
C     2.895084   19.662048    6.838882
C    15.693070   19.661938    6.842769
C    32.774538   19.661951    6.837968
C    18.561800   19.661875    6.838078
C    31.354322   19.662091    6.833448
C    19.981850   19.661946    6.835210
C    22.813464   19.661881    6.834229
C    27.101653   19.661614    6.836914
C    28.521711   19.661938    6.835287
C    24.233365   19.661574    6.835985
Li    0.030948   19.650708    4.965580
Li    0.031086   14.718506    4.965567
Li    0.031219    9.785325    4.965508
Li    0.031162    4.853724    4.964778
Li    4.308179   17.184180    4.970077
Li    4.308270   12.253465    4.969918
Li    4.307652    7.322486    4.966095
Li    4.308004    2.388517    4.967925
Li    8.586531    4.852720    4.959246
Li    8.586502    9.785766    4.961051
Li    8.586499   14.718441    4.965542
Li    8.586587   19.650705    4.964177
Li   12.865825   17.184330    4.968756
Li   12.865900   12.253399    4.968510
Li   12.866663    7.322499    4.965219
Li   12.866217    2.388593    4.967142
Li   17.136069   19.650838    4.965668
Li   17.135875   14.718430    4.964782
Li   17.135732    9.785163    4.965593
Li   17.135823    4.853655    4.965660
Li   21.400501   17.184335    4.965299
Li   21.400994   12.253146    4.967041
Li   21.401288    7.322368    4.969190
Li   21.401240    2.388723    4.968931
Li   25.659343   19.651362    4.961193
Li   25.659380   14.717557    4.959233
Li   25.659310    9.785102    4.964292
Li   25.659185    4.853505    4.965535
Li   29.924452   17.184393    4.965037
Li   29.924004   12.253278    4.966843
Li   29.923649    7.322382    4.968344
Li   29.923637    2.388874    4.968057
C    10.009974    4.865062    3.088650
C     7.157271    4.865023    3.089539
C     7.868794    6.100978    3.093883
C     9.298424    6.101025    3.094139
C    27.093975   14.728843    3.088364
C    24.241752   14.728834    3.087182
C    24.953225   15.964818    3.092354
C    26.382650   15.964783    3.093685
C     7.868735    3.628909    3.090334
C     9.298515    3.628920    3.090602
C    11.429061    7.330941    3.080983
C    10.006698    7.330779    3.101973
C     7.160572    7.330749    3.102563
C     7.868735    8.560554    3.092629
C     9.298497    8.560569    3.092862
C    24.953136   13.492720    3.088994
C    26.382686   13.492768    3.090347
C    28.512865   17.194752    3.078258
C    27.090674   17.194602    3.100825
C    24.245160   17.194548    3.100928
C    24.953140   18.424331    3.091594
C    26.382735   18.424430    3.092909
C     7.868812    1.169341    3.096060
C     9.298430    1.169367    3.096270
C    12.140341    1.163338    3.077911
C     5.026817    1.163215    3.078912
C    33.495092    1.169460    3.098665
C     3.597514    1.163134    3.078939
C    16.411404    1.169306    3.099404
C     0.755524    1.169319    3.100314
C    13.569578    1.163185    3.078159
C    17.840970    1.169379    3.098993
C    20.682503    1.163246    3.078506
C    29.224309    1.163201    3.075826
C    30.653437    1.163417    3.078729
C    24.953154    1.169077    3.093756
C    22.111595    1.163119    3.077600
C    26.382676    1.169050    3.094881
C    10.006714    2.399157    3.101438
C     7.160554    2.399134    3.102033
C     5.738142    2.399193    3.081341
C    14.280928    2.399285    3.081862
C     2.886178    2.399225    3.083738
C    11.429106    2.399276    3.081798
C    31.364523    2.399422    3.084354
C     1.463751    2.399172    3.106479
C    18.549173    2.399187    3.105979
C    32.786803    2.399279    3.106570
C    15.703278    2.399206    3.106334
C    22.822762    2.399149    3.081919
C    27.090686    2.399043    3.102565
C    19.971409    2.399289    3.084546
C    28.513003    2.399270    3.080748
C    24.245054    2.398984    3.103258
C    12.140358    3.635061    3.078036
C    33.494969    3.629077    3.096157
C     3.597696    3.635110    3.079631
C    16.411424    3.629055    3.097141
C    20.682546    3.635126    3.081493
C    30.653402    3.635230    3.081422
C     0.755562    3.629046    3.097470
C     5.026829    3.635009    3.078946
C    13.569422    3.635188    3.078976
C    17.841136    3.628995    3.097108
C    29.224456    3.635210    3.079390
C    24.953072    3.628881    3.094872
C    22.111435    3.635029    3.081292
C    26.382713    3.628969    3.095964
C    27.094106    4.865089    3.094606
C    31.361140    4.865193    3.095647
C     1.467063    4.865177    3.094706
C    14.277392    4.865126    3.093905
C    18.552530    4.865171    3.093908
C    22.819145    4.864989    3.095682
C    28.516579    4.865085    3.095685
C    32.783525    4.865256    3.093729
C     2.889723    4.865081    3.095439
C    11.432490    4.865019    3.092419
C    15.699970    4.865166    3.094996
C    19.974869    4.865087    3.096664
C    24.241550    4.865053    3.093868
C     5.734758    4.864954    3.092309
C    24.953105    6.101081    3.098599
C    29.224350    6.095012    3.077695
C    33.495097    6.101220    3.097891
C    16.411467    6.101123    3.098588
C    20.682461    6.095034    3.079219
C    26.382627    6.101036    3.099682
C    30.653476    6.095143    3.079304
C     0.755526    6.101155    3.098968
C    17.841016    6.101160    3.098856
C    22.111493    6.094975    3.079472
C     3.597687    6.094992    3.076575
C    12.140255    6.095034    3.075621
C    13.569486    6.095040    3.075870
C     5.026974    6.094952    3.076566
C    24.245040    7.330896    3.105984
C    22.822775    7.330946    3.083017
C    27.090684    7.330908    3.105456
C    31.364609    7.331014    3.083991
C    18.549088    7.330945    3.105442
C    28.512970    7.331011    3.082059
C    32.786922    7.330984    3.106021
C    15.703248    7.330972    3.104886
C    19.971317    7.330959    3.084063
C     1.463829    7.330978    3.105040
C    14.280893    7.331081    3.079739
C     2.886263    7.331004    3.081683
C     5.738240    7.330893    3.080575
C    24.953067    8.560786    3.095779
C    29.224373    8.567005    3.079185
C    22.111492    8.566921    3.080706
C    26.382735    8.560853    3.096972
C    20.682511    8.566872    3.080700
C    33.495156    8.560789    3.096130
C    16.411262    8.560911    3.096362
C    30.653429    8.566888    3.081096
C    17.840946    8.560766    3.096594
C     3.597746    8.566960    3.078433
C     0.755719    8.560903    3.097256
C    13.569427    8.567047    3.077547
C    12.140334    8.566874    3.077488
C     5.026894    8.566831    3.078502
C    27.093972    9.797101    3.093475
C    24.241695    9.797069    3.092586
C    22.819261    9.796994    3.094349
C    28.516450    9.797025    3.094755
C    18.552349    9.797014    3.093787
C    31.361169    9.797006    3.095915
C    19.974832    9.796961    3.096269
C    32.783710    9.797047    3.094421
C    15.699896    9.797118    3.095018
C     1.467159    9.797079    3.095479
C    14.277368    9.797051    3.094251
C     2.889786    9.797007    3.096287
C     5.734704    9.796890    3.093626
C    10.009985    9.796829    3.090420
C    11.432576    9.796962    3.093508
C     7.157291    9.796780    3.091452
C    24.953198   11.033118    3.094966
C    26.382608   11.033094    3.096198
C    29.224192   11.027011    3.076452
C    22.111670   11.027021    3.077584
C    16.411241   11.033170    3.099358
C    20.682527   11.026996    3.078377
C    33.495285   11.033141    3.099155
C    17.840817   11.033108    3.099157
C    30.653424   11.027068    3.079181
C     0.755749   11.033155    3.100690
C     3.597561   11.027078    3.079350
C    12.140392   11.027091    3.077790
C    13.569597   11.027078    3.078146
C     7.868766   11.032905    3.095601
C     5.026836   11.027013    3.079213
C     9.298492   11.032941    3.095721
C    27.090653   12.262946    3.100327
C    24.245150   12.262922    3.100462
C    22.822934   12.262998    3.079417
C    31.364603   12.263065    3.083891
C    19.971290   12.263013    3.083196
C    28.512876   12.263054    3.079080
C    14.280868   12.263150    3.082601
C    18.548961   12.262929    3.105375
C     1.463965   12.263020    3.107528
C    15.703087   12.263052    3.106467
C    32.786993   12.262946    3.106909
C     5.738078   12.263012    3.084037
C    10.006792   12.262839    3.104406
C     2.886252   12.263121    3.085161
C    11.429213   12.263060    3.083860
C     7.160504   12.262837    3.105430
C    29.224254   13.498938    3.076222
C    16.411115   13.492908    3.096689
C    20.682655   13.498839    3.078644
C    33.495276   13.492746    3.096711
C     3.597577   13.498997    3.081853
C    13.569537   13.499052    3.080460
C    17.840815   13.492770    3.096119
C    22.111637   13.498808    3.077216
C    30.653269   13.498883    3.079582
C     0.755856   13.492874    3.098623
C    12.140534   13.498929    3.080887
C     7.868708   13.492762    3.096645
C     5.026652   13.498896    3.082466
C     9.298562   13.492726    3.096709
C    10.010100   14.728935    3.094841
C    14.277382   14.728952    3.095121
C    18.552327   14.728951    3.092125
C    31.361111   14.728886    3.093841
C     1.467191   14.728970    3.096102
C     5.734538   14.728829    3.097300
C    11.432691   14.728874    3.096831
C    15.699792   14.728983    3.094781
C    19.974900   14.728849    3.093732
C    28.516402   14.728843    3.090809
C    32.783707   14.728964    3.093620
C     2.889687   14.728897    3.097668
C     7.157165   14.728908    3.096069
C    22.819380   14.728735    3.090021
C     7.868766   15.964923    3.100221
C    12.140478   15.958856    3.079120
C    16.411209   15.964909    3.098331
C    33.495303   15.965025    3.098135
C     3.597466   15.958788    3.079506
C     9.298484   15.964979    3.100274
C    13.569622   15.958845    3.078200
C    17.840748   15.964999    3.097589
C     0.755697   15.964892    3.100198
C     5.026684   15.958781    3.080623
C    20.682627   15.958825    3.075625
C    29.224187   15.958781    3.073738
C    30.653346   15.958899    3.076523
C    22.111755   15.958721    3.074783
C     7.160450   17.194746    3.108253
C     5.738026   17.194752    3.085248
C    10.006800   17.194811    3.107175
C    14.280939   17.194842    3.082255
C     1.463822   17.194737    3.106960
C    11.429217   17.194828    3.085098
C    15.703176   17.194772    3.105960
C    32.786934   17.194824    3.105543
C     2.886133   17.194775    3.084694
C    18.549007   17.194780    3.104041
C    31.364574   17.194873    3.081854
C    19.971346   17.194811    3.081304
C    22.822957   17.194661    3.078659
C     7.868627   18.424655    3.097713
C    12.140495   18.430759    3.081136
C     5.026700   18.430697    3.082491
C     9.298545   18.424656    3.097789
C     3.597518   18.430697    3.081679
C    16.411251   18.424667    3.097117
C    33.495110   18.424670    3.096282
C    13.569592   18.430789    3.080614
C     0.755682   18.424640    3.098435
C    20.682676   18.430684    3.078096
C    17.840942   18.424652    3.096254
C    30.653292   18.430761    3.078753
C    29.224251   18.430721    3.076131
C    22.111688   18.430581    3.077405
C    10.010018   19.660912    3.093669
C     7.157228   19.660919    3.094796
C     5.734616   19.660780    3.096324
C    11.432603   19.660862    3.096167
C     1.467009   19.660847    3.096241
C    14.277447   19.660799    3.095766
C     2.889609   19.660723    3.097690
C    15.699956   19.660864    3.095815
C    32.783595   19.660914    3.093856
C    18.552437   19.660852    3.093185
C    31.361078   19.660880    3.094555
C    19.974917   19.660741    3.095002
C    22.819305   19.660629    3.091790
C    27.094036   19.660595    3.090242
C    28.516494   19.660732    3.092116
C    24.241741   19.660535    3.089317
