528       
Geometry optimisation iteration:     7
Li    0.030642   19.672720    8.605925
Li    0.030820   14.739429    8.606526
Li    0.030237    9.806595    8.605912
Li    0.030109    4.875897    8.605410
Li   17.140797   19.672376    8.605977
Li   17.140657   14.739453    8.605471
Li   17.141326    9.806948    8.605906
Li   17.141555    4.875924    8.606531
Li    8.590441    4.878704    8.596082
Li    8.590448    9.804566    8.602808
Li    8.590421   14.739772    8.605915
Li    8.590447   19.672385    8.607032
Li   25.663278   19.670369    8.602779
Li   25.663301   14.742110    8.596094
Li   25.663227    9.806602    8.606941
Li   25.663211    4.876266    8.605842
C    22.108656    1.163422    3.335967
C    26.380350    1.163441    3.337623
C    30.651449    1.163405    3.336495
C     6.446642    1.163332    3.336770
C    10.717891    1.163349    3.337121
C     2.176052    1.163400    3.336832
C    14.988625    1.163342    3.336564
C    19.260209    1.163424    3.336530
C    23.531326    1.163427    3.336487
C    27.803063    1.163466    3.337096
C    32.074004    1.163412    3.336874
C     0.753493    1.163372    3.337519
C     5.024152    1.163351    3.336273
C     9.295316    1.163354    3.337760
C    13.566069    1.163360    3.336339
C    17.837518    1.163395    3.337187
C    15.701657    2.396346    3.336780
C    19.973216    2.396384    3.336052
C    24.244387    2.396406    3.336929
C     4.311371    2.396345    3.336293
C    28.516041    2.396413    3.336928
C     0.040423    2.396350    3.337660
C     8.582256    2.396331    3.337400
C    12.853281    2.396339    3.336196
C    17.124404    2.396368    3.336986
C    21.395795    2.396399    3.335662
C    25.667184    2.396403    3.337517
C    29.938588    2.396393    3.336474
C    32.786969    2.396385    3.337330
C     2.888935    2.396357    3.336778
C     7.159596    2.396335    3.337058
C    11.430814    2.396321    3.336667
C    13.566077    3.629318    3.336101
C    17.837530    3.629339    3.336907
C     2.176044    3.629321    3.337210
C    22.108664    3.629353    3.335665
C    26.380346    3.629357    3.337658
C     6.446638    3.629335    3.336479
C    10.717899    3.629326    3.336578
C    14.988648    3.629335    3.336411
C    19.260227    3.629329    3.336191
C    23.531339    3.629362    3.336307
C    27.803053    3.629347    3.337118
C    30.651428    3.629361    3.336557
C     0.753481    3.629358    3.337880
C     5.024139    3.629344    3.336300
C    32.073995    3.629355    3.336993
C     9.295312    3.629323    3.337119
C     0.040420    4.862326    3.337912
C    11.430794    4.862335    3.336253
C    15.701637    4.862321    3.336724
C    19.973200    4.862315    3.335944
C    24.244381    4.862305    3.336767
C     4.311374    4.862332    3.336202
C     8.582241    4.862321    3.336738
C    12.853288    4.862306    3.335807
C    17.124387    4.862301    3.336942
C    21.395814    4.862307    3.335358
C    25.667187    4.862308    3.337436
C    28.516041    4.862305    3.336914
C    29.938603    4.862327    3.336338
C    32.786966    4.862309    3.337441
C     2.888926    4.862325    3.337068
C     7.159586    4.862329    3.336494
C     9.295307    6.095317    3.336566
C    13.566077    6.095295    3.335918
C    17.837541    6.095273    3.336886
C    22.108681    6.095274    3.335520
C    32.073999    6.095272    3.336880
C     2.176054    6.095317    3.337213
C     6.446643    6.095319    3.336017
C    10.717907    6.095345    3.336119
C    14.988655    6.095305    3.336330
C    19.260253    6.095308    3.336110
C    23.531332    6.095264    3.336148
C    26.380321    6.095269    3.337492
C    27.803045    6.095273    3.336960
C    30.651423    6.095290    3.336385
C     0.753481    6.095302    3.337882
C     5.024138    6.095320    3.335995
C     7.159610    7.328307    3.336294
C    11.430817    7.328303    3.336075
C    15.701669    7.328276    3.336738
C    19.973231    7.328246    3.335919
C    29.938576    7.328238    3.336235
C     0.040434    7.328264    3.337641
C     4.311375    7.328300    3.336030
C     8.582247    7.328306    3.336551
C    12.853278    7.328285    3.335847
C    17.124413    7.328243    3.336958
C    21.395800    7.328217    3.335499
C    25.667179    7.328212    3.337384
C    24.244392    7.328204    3.336783
C    28.516032    7.328210    3.336717
C    32.786984    7.328245    3.337210
C     2.888966    7.328282    3.336760
C     5.024168    8.561286    3.335999
C     9.295305    8.561298    3.337006
C    13.566060    8.561277    3.336182
C    17.837512    8.561235    3.337143
C    27.803064    8.561172    3.337093
C    32.074019    8.561228    3.336707
C     2.176079    8.561247    3.336925
C     6.446640    8.561301    3.336219
C    10.717888    8.561280    3.336535
C    23.531316    8.561190    3.336517
C    14.988630    8.561259    3.336537
C    19.260218    8.561199    3.336418
C    22.108676    8.561201    3.335900
C    26.380343    8.561180    3.337717
C    30.651448    8.561201    3.336301
C     0.753507    8.561244    3.337587
C     7.159593    9.794261    3.336836
C    11.430783    9.794273    3.336825
C    15.701617    9.794222    3.337078
C    25.667173    9.794148    3.337750
C    29.938618    9.794160    3.336212
C     0.040447    9.794213    3.337376
C     4.311408    9.794255    3.335903
C    21.395803    9.794187    3.335945
C     8.582236    9.794270    3.337306
C    12.853285    9.794258    3.336276
C    17.124386    9.794217    3.337358
C    19.973188    9.794187    3.336491
C    24.244356    9.794170    3.337228
C    28.516024    9.794164    3.336963
C    32.786969    9.794198    3.337033
C     2.888960    9.794239    3.336565
C     5.024168   11.027213    3.335907
C     9.295295   11.027237    3.337611
C    13.566042   11.027224    3.336521
C    23.531321   11.027115    3.336775
C    27.803070   11.027155    3.337044
C    19.260206   11.027168    3.336861
C    32.074039   11.027164    3.336515
C     2.176094   11.027226    3.336462
C     6.446657   11.027221    3.336448
C    10.717879   11.027249    3.337108
C    14.988614   11.027181    3.336820
C    17.837494   11.027188    3.337509
C    22.108653   11.027140    3.336303
C    26.380333   11.027113    3.337726
C    30.651452   11.027129    3.336224
C     0.753517   11.027177    3.337143
C    32.787036   12.260149    3.336752
C     2.889005   12.260177    3.335985
C     7.159627   12.260189    3.336902
C    21.395748   12.260133    3.336334
C    11.430791   12.260192    3.336972
C    17.124325   12.260156    3.337607
C    25.667195   12.260106    3.337408
C    29.938630   12.260119    3.336056
C     0.040474   12.260154    3.336971
C     4.311399   12.260180    3.335611
C     8.582235   12.260199    3.337504
C    12.853221   12.260192    3.336514
C    15.701607   12.260160    3.337268
C    19.973173   12.260138    3.336835
C    24.244394   12.260124    3.337082
C    28.516095   12.260120    3.336530
C    30.651469   13.493123    3.336015
C     0.753538   13.493127    3.336915
C    19.260176   13.493116    3.337261
C     5.024184   13.493150    3.335646
C     9.295311   13.493162    3.337668
C    23.531316   13.493121    3.336553
C    27.803084   13.493088    3.336487
C    32.074051   13.493128    3.336384
C     2.176105   13.493129    3.336144
C     6.446658   13.493162    3.336303
C    10.717876   13.493131    3.337186
C    13.566028   13.493151    3.336600
C    17.837470   13.493130    3.337869
C    22.108626   13.493124    3.336376
C    14.988593   13.493151    3.336986
C    26.380349   13.493119    3.337098
C    17.124346   14.726097    3.337919
C    28.516049   14.726097    3.336170
C    32.786994   14.726097    3.336759
C     2.888966   14.726104    3.335908
C     7.159596   14.726100    3.336784
C    21.395776   14.726095    3.336287
C    25.667186   14.726109    3.336750
C    29.938655   14.726109    3.335742
C     0.040477   14.726124    3.336975
C     4.311432   14.726107    3.335344
C     8.582258   14.726102    3.337444
C    11.430775   14.726124    3.337013
C    12.853262   14.726099    3.336441
C    15.701579   14.726110    3.337467
C    19.973148   14.726112    3.337142
C    24.244345   14.726097    3.336559
C    26.380360   15.959114    3.336556
C    30.651489   15.959117    3.335917
C     0.753539   15.959097    3.336865
C     5.024190   15.959066    3.335514
C    14.988579   15.959086    3.336941
C    19.260167   15.959119    3.337267
C    23.531311   15.959095    3.336119
C    27.803090   15.959110    3.336078
C    32.074049   15.959074    3.336381
C     2.176094   15.959078    3.336064
C     6.446663   15.959052    3.336158
C     9.295317   15.959043    3.337491
C    10.717872   15.959090    3.336998
C    13.566034   15.959060    3.336490
C    17.837474   15.959074    3.337918
C    22.108635   15.959096    3.336109
C    24.244382   17.192092    3.336330
C    28.516084   17.192091    3.336031
C    32.787024   17.192060    3.336788
C     2.888998   17.192026    3.335868
C    12.853237   17.192018    3.336341
C    17.124347   17.192051    3.337671
C    21.395761   17.192086    3.336104
C    25.667197   17.192104    3.336551
C    29.938625   17.192088    3.335818
C     0.040467   17.192078    3.336936
C     4.311402   17.192035    3.335470
C     8.582244   17.192000    3.337379
C     7.159624   17.192017    3.336785
C    11.430803   17.192038    3.336749
C    15.701627   17.192052    3.337237
C    19.973177   17.192079    3.336808
C    22.108650   18.425071    3.336034
C    26.380345   18.425085    3.336970
C    30.651439   18.425074    3.336174
C     0.753515   18.425037    3.337083
C    10.717892   18.424970    3.337100
C    14.988627   18.425020    3.336747
C    19.260201   18.425040    3.336954
C    23.531319   18.425092    3.336234
C    27.803089   18.425066    3.336470
C     6.446666   18.424994    3.336502
C    32.074021   18.425061    3.336595
C     2.176112   18.425002    3.336352
C     5.024157   18.425003    3.335876
C     9.295286   18.424985    3.337711
C    13.566056   18.425008    3.336417
C    17.837484   18.425032    3.337606
C    24.244366   19.658061    3.336840
C    28.516045   19.658069    3.336767
C    32.786971   19.658044    3.337142
C     8.582241   19.657973    3.337783
C    12.853276   19.657984    3.336344
C    17.124371   19.658014    3.337398
C    21.395793   19.658049    3.335946
C     4.311402   19.657975    3.335933
C    25.667196   19.658061    3.337294
C    29.938620   19.658043    3.336216
C     0.040434   19.657996    3.337364
C     2.888955   19.658010    3.336459
C     7.159590   19.657963    3.337250
C    11.430794   19.657941    3.337034
C    15.701622   19.657982    3.337046
C    19.973171   19.658027    3.336610
C    10.011935    4.863371    6.686400
C     7.153873    4.863388    6.686966
C     7.867404    6.099729    6.682935
C     9.298472    6.099844    6.680439
C    27.096758   14.727124    6.687004
C    24.238494   14.727182    6.686411
C    24.952176   15.963567    6.682705
C    26.383329   15.963579    6.680807
C     7.867527    3.627218    6.687819
C     9.298408    3.627077    6.685354
C    11.434131    7.329643    6.685875
C    10.012458    7.329948    6.685303
C     7.153138    7.329984    6.686940
C     7.867560    8.560102    6.688362
C     9.298249    8.559939    6.685876
C    24.952287   13.490984    6.687594
C    26.383264   13.490875    6.685682
C    28.519147   17.193454    6.686095
C    27.097361   17.193749    6.685551
C    24.237864   17.193810    6.686764
C    24.952341   18.423895    6.688132
C    26.383141   18.423793    6.686196
C     7.867522    1.166812    6.693459
C     9.298369    1.166933    6.690966
C    12.143094    1.163847    6.695094
C     5.023001    1.163811    6.695888
C    33.494739    1.167577    6.693327
C     3.600202    1.163949    6.696364
C    16.410055    1.167356    6.694399
C     0.756078    1.167430    6.692258
C    13.565942    1.163959    6.695310
C    17.840630    1.167708    6.692064
C    20.684855    1.164649    6.696354
C    29.227939    1.164745    6.694820
C    30.650716    1.164638    6.694624
C    24.952312    1.168114    6.692736
C    22.107669    1.164807    6.695844
C    26.383206    1.168178    6.690791
C    10.012462    2.396941    6.691065
C     7.153222    2.396972    6.692707
C     5.732022    2.396983    6.692796
C    14.275068    2.397157    6.694578
C     2.891211    2.397136    6.693358
C    11.434134    2.396983    6.690248
C    31.359626    2.397638    6.693335
C     1.469749    2.397375    6.695195
C    18.554579    2.397631    6.695087
C    32.780585    2.397610    6.694731
C    15.696108    2.397424    6.696355
C    22.816874    2.397756    6.695171
C    27.097213    2.397970    6.694786
C    19.976052    2.397629    6.693430
C    28.518856    2.397744    6.692526
C    24.238039    2.397971    6.696147
C    12.143202    3.630181    6.692384
C    33.494678    3.627580    6.693909
C     3.600069    3.630282    6.695356
C    16.410296    3.627532    6.695957
C    20.684993    3.630550    6.696353
C    30.650604    3.630584    6.694305
C     0.755867    3.627390    6.693220
C     5.022912    3.630215    6.692977
C    13.566091    3.630292    6.694700
C    17.840724    3.627455    6.693256
C    29.227834    3.630609    6.695139
C    24.952441    3.627741    6.695314
C    22.107801    3.630585    6.696276
C    26.383087    3.627682    6.693372
C    27.096511    4.863342    6.696174
C    31.355922    4.863327    6.696728
C     1.468988    4.863321    6.696941
C    14.271562    4.863301    6.698312
C    18.554116    4.863360    6.695944
C    22.813248    4.863300    6.698638
C    28.522554    4.863334    6.696610
C    32.781153    4.863368    6.694012
C     2.894851    4.863303    6.697196
C    11.438052    4.863298    6.690646
C    15.696974    4.863328    6.697190
C    19.979906    4.863296    6.697390
C    24.238740    4.863336    6.695725
C     5.728275    4.863339    6.692744
C    24.952339    6.099129    6.693756
C    29.227854    6.096074    6.694003
C    33.494619    6.099334    6.692671
C    16.410197    6.099318    6.694934
C    20.684993    6.096063    6.695127
C    26.383159    6.099191    6.691861
C    30.650636    6.096097    6.693221
C     0.755974    6.099431    6.692118
C    17.840798    6.099426    6.691974
C    22.107778    6.096028    6.694994
C     3.600052    6.096341    6.693772
C    12.143208    6.096396    6.689696
C    13.566077    6.096309    6.693167
C     5.022868    6.096436    6.690253
C    24.238032    7.328904    6.696048
C    22.816858    7.328893    6.694502
C    27.097193    7.328912    6.694770
C    31.359683    7.329083    6.692493
C    18.554537    7.329262    6.694493
C    28.518840    7.328947    6.692040
C    32.780644    7.329300    6.694209
C    15.696062    7.329448    6.696363
C    19.976008    7.329025    6.692410
C     1.469767    7.329475    6.695103
C    14.275018    7.329486    6.693757
C     2.891200    7.329506    6.692436
C     5.731959    7.329723    6.688419
C    24.952392    8.558758    6.695854
C    29.227945    8.561874    6.695517
C    22.107671    8.561821    6.696376
C    26.383104    8.558699    6.693925
C    20.684846    8.561975    6.696115
C    33.494891    8.559308    6.694077
C    16.410075    8.559532    6.695559
C    30.650758    8.562027    6.694560
C    17.840496    8.559163    6.692823
C     3.600175    8.562669    6.695536
C     0.756047    8.559442    6.693434
C    13.565883    8.562631    6.694476
C    12.143048    8.562759    6.692267
C     5.022966    8.562838    6.693122
C    27.096548    9.794585    6.697133
C    24.238653    9.794573    6.696639
C    22.813044    9.794652    6.699685
C    28.522707    9.794668    6.697821
C    18.553754    9.795092    6.695797
C    31.356227    9.794896    6.698012
C    19.979606    9.794883    6.697846
C    32.781526    9.795109    6.694900
C    15.696622    9.795375    6.696544
C     1.469282    9.795395    6.697464
C    14.271214    9.795509    6.698638
C     2.895112    9.795545    6.698519
C     5.728517    9.795775    6.697306
C    10.011738    9.795868    6.692485
C    11.437754    9.795722    6.694846
C     7.154020    9.795911    6.693195
C    24.952272   11.030589    6.693246
C    26.383211   11.030658    6.691332
C    29.228105   11.027601    6.695193
C    22.107537   11.027602    6.695827
C    16.409754   11.031295    6.694011
C    20.684632   11.027771    6.696187
C    33.495055   11.031178    6.693796
C    17.840360   11.031272    6.691678
C    30.651009   11.027780    6.695047
C     0.756391   11.031426    6.692743
C     3.600437   11.028406    6.696603
C    12.142878   11.028559    6.694705
C    13.565647   11.028379    6.694878
C     7.867545   11.031849    6.693108
C     5.023150   11.028575    6.695978
C     9.298337   11.031952    6.690548
C    27.097359   12.260706    6.691317
C    24.237919   12.260735    6.692571
C    22.816621   12.260766    6.692722
C    31.360163   12.260948    6.694171
C    19.975563   12.260948    6.693039
C    28.519131   12.260748    6.690468
C    14.274547   12.261394    6.693740
C    18.554058   12.261160    6.694753
C     1.470277   12.261403    6.695548
C    15.695552   12.261389    6.695192
C    32.781127   12.261177    6.695889
C     5.732307   12.261540    6.695325
C    10.012305   12.261717    6.694542
C     2.891662   12.261406    6.693789
C    11.433807   12.261528    6.692302
C     7.153335   12.261743    6.696376
C    29.228225   13.493969    6.692496
C    16.409673   13.491410    6.694479
C    20.684485   13.494064    6.695171
C    33.495300   13.491232    6.695341
C     3.600565   13.494359    6.696583
C    13.565541   13.494376    6.694550
C    17.840109   13.491127    6.692599
C    22.107442   13.494009    6.692927
C    30.651153   13.494053    6.694429
C     0.756475   13.491317    6.693858
C    12.142799   13.494384    6.695002
C     7.867678   13.491571    6.695538
C     5.023257   13.494389    6.696364
C     9.298229   13.491419    6.693038
C    10.011685   14.727138    6.695604
C    14.270958   14.727118    6.697238
C    18.553460   14.727123    6.695693
C    31.356504   14.727074    6.697752
C     1.469603   14.727135    6.697217
C     5.728708   14.727078    6.698849
C    11.437600   14.727101    6.696330
C    15.696317   14.727127    6.695223
C    19.979363   14.727101    6.696680
C    28.523031   14.727083    6.690926
C    32.781829   14.727127    6.695922
C     2.895403   14.727097    6.697919
C     7.154133   14.727106    6.696269
C    22.812779   14.727139    6.692521
C     7.867589   15.962854    6.694073
C    12.142820   15.959839    6.693872
C    16.409602   15.963037    6.693333
C    33.495198   15.963210    6.694299
C     3.600551   15.959833    6.695350
C     9.298301   15.963018    6.691599
C    13.565552   15.959880    6.693437
C    17.840190   15.963331    6.691505
C     0.756521   15.963130    6.692639
C     5.023232   15.959790    6.695091
C    20.684466   15.960178    6.693539
C    29.228264   15.960210    6.689813
C    30.651145   15.960107    6.692902
C    22.107392   15.960266    6.690142
C     7.153342   17.192703    6.696294
C     5.732284   17.192689    6.694679
C    10.012296   17.192756    6.694604
C    14.274599   17.192897    6.692859
C     1.470222   17.193058    6.694989
C    11.433821   17.192730    6.691881
C    15.695603   17.193097    6.694707
C    32.781087   17.193288    6.695895
C     2.891626   17.192848    6.692779
C    18.554046   17.193310    6.694711
C    31.360131   17.193271    6.693341
C    19.975543   17.193333    6.692101
C    22.816538   17.193533    6.688250
C     7.867609   18.422620    6.696185
C    12.142893   18.425679    6.695468
C     5.023170   18.425641    6.696504
C     9.298238   18.422504    6.693744
C     3.600410   18.425803    6.696376
C    16.409859   18.423194    6.694764
C    33.495086   18.423291    6.695034
C    13.565698   18.425852    6.694797
C     0.756265   18.423052    6.693513
C    20.684592   18.426458    6.695303
C    17.840263   18.423199    6.692892
C    30.650979   18.426416    6.694227
C    29.228097   18.426566    6.692386
C    22.107512   18.426629    6.692982
C    10.011746   19.658385    6.696625
C     7.154051   19.658393    6.697233
C     5.728539   19.658453    6.699917
C    11.437761   19.658494    6.697632
C     1.469253   19.658905    6.697070
C    14.271292   19.658693    6.698524
C     2.895095   19.658664    6.698357
C    15.696674   19.658938    6.696139
C    32.781451   19.659165    6.695309
C    18.553768   19.659184    6.696220
C    31.356175   19.659347    6.698109
C    19.979605   19.659346    6.697999
C    22.813021   19.659587    6.697036
C    27.096571   19.659686    6.693032
C    28.522715   19.659520    6.695102
C    24.238648   19.659719    6.692583
