577       
Geometry optimisation iteration:     0
Li   20.490075    8.631084   11.940473
Li   18.401534   11.899901   11.977553
Li   18.473027    2.543758   11.906969
Li   12.514943    5.309433   12.198451
Li   22.988345    7.440789   12.051856
Li   14.955917    6.945041   12.038654
Li   14.690526   10.207026   11.989076
Li   17.892919    5.509998   11.981419
Li   20.701907    5.742721   12.000720
Li   18.630178   14.761364   12.037133
Li   23.527355    4.503256   12.221987
Li   17.420005    8.690128   12.210218
Li   12.571471    8.393517   13.253478
Li   14.324645    2.457690   11.893053
Li   21.390832   11.480374   12.355509
Li   21.086670    3.036693   13.675564
Li   16.208136   13.263004   13.456071
Li   19.454881    7.181169   14.108352
Li   10.980866    6.126480   15.124195
Li   21.689293    8.567192   14.520595
Li   19.319937    9.984247   14.160263
Li   18.848661    4.579036   14.372281
Li   15.131881    8.650532   14.380639
Li   15.935639    4.405085   13.849981
Li   18.845727   12.597060   14.724943
Li   21.772711    5.631091   14.622025
Li   16.885959    6.804584   14.432266
Li   13.862316   11.190068   14.905443
Li   13.931025    6.130393   14.721393
Li   23.956061   10.434661   14.949035
Li   16.734065   10.681423   14.389836
Li   13.121709    3.441902   14.898755
Li   24.155221    6.900211   15.058206
Li   21.486714   14.037359   15.113459
Li   23.840145    3.514609   15.361128
Li   17.773124    2.237935   15.140837
Li   18.315839   15.203297   15.656937
Li   21.170180   11.091747   15.635885
Li   18.080672    8.606047   15.910225
Li   20.290375    6.923977   16.766205
Li   13.143490    8.433612   16.422729
Li   16.235675   12.796570   16.478277
Li   20.487926    3.849421   16.558037
Li   18.126904    5.355227   16.804698
Li   22.512840    8.635265   17.043385
Li   15.767318    4.188987   16.613182
Li   17.960606   11.124516   17.269905
Li   13.200465    5.534185   17.551248
Li   15.675388    9.794938   16.903930
Li   15.789107    7.081983   16.990598
Li   19.790858   12.961007   17.501778
Li   22.598697    5.686799   17.763909
Li   20.062589    9.701396   17.445716
Li   14.066011   11.500087   18.504569
Li   22.490575   11.356277   18.405425
Li   18.121887    2.726325   18.448277
Li   18.117722    7.926065   18.649856
Li   19.589988    5.492568   19.236245
Li   17.124975   13.257522   19.431119
Li   14.578508    8.109633   19.449214
Li   16.492556    5.629035   19.450077
Li   20.892256    8.122197   19.676133
Li   16.738318   10.090676   19.461821
Li   19.524432   10.816399   19.936981
Li   18.121053    7.867098   21.633866
C    16.406857   13.490778    6.819679
C    20.678926   11.024888    6.824742
C    22.814773    9.791819    6.841906
C     5.729628   19.654909    6.800481
C    24.950421    8.558541    6.850021
C     7.864920   18.422018    6.821859
C    27.085964    7.325287    6.848245
C    12.135788   15.956293    6.831322
C    31.357598    4.858990    6.821914
C    10.000462   17.189125    6.832140
C    29.221696    6.092080    6.839713
C    14.271146   14.723595    6.826125
C    33.493213    3.626148    6.796821
C    18.542947   12.257858    6.814834
C    12.135668   18.421704    6.838753
C    31.357583    7.325307    6.837276
C    16.406927   15.956309    6.846384
C     1.459277    2.393314    6.778125
C    20.678969   13.490900    6.849690
C     3.594478    1.160310    6.780262
C    22.814659   12.258046    6.850001
C    24.950218   11.024827    6.847505
C    27.085820    9.791636    6.843646
C    10.000346   19.654648    6.836069
C    29.221656    8.558466    6.841006
C    14.271137   17.188959    6.841225
C    33.493272    6.092236    6.828893
C    18.543038   14.723592    6.849268
C    31.357483    9.791488    6.828114
C    16.407070   18.421718    6.840951
C     1.459434    4.859277    6.818100
C    20.679004   15.956331    6.855633
C     3.594646    3.626250    6.812749
C    22.814474   14.723575    6.851561
C     5.729760    2.393101    6.817665
C    24.949851   13.490633    6.842353
C     7.865011    1.160118    6.828209
C    27.085557   12.257558    6.831599
C    29.221531   11.024528    6.825968
C    14.271234   19.654450    6.832624
C    33.493233    8.558416    6.833379
C    18.543090   17.189040    6.851991
C    12.135742    1.159793    6.831587
C    31.357376   12.257307    6.797427
C     1.459486    7.325371    6.835802
C    20.679038   18.421443    6.844684
C     3.594796    6.092369    6.834563
C    22.814394   17.188675    6.846136
C     5.730056    4.859309    6.833158
C    24.949657   15.956012    6.835860
C     7.865226    3.626136    6.833730
C    27.085294   14.723157    6.817452
C    10.000339    2.392930    6.833608
C    29.221328   13.490246    6.800536
C    33.493096   11.024374    6.809831
C    18.543127   19.654322    6.830052
C    12.135840    3.625946    6.812544
C    31.357189   14.722981    6.757717
C    16.407134    1.159766    6.810553
C     1.459421    9.791392    6.826798
C     3.594836    8.558442    6.837154
C    22.814525   19.653951    6.838247
C     5.730168    7.325508    6.838490
C    24.949774   18.421302    6.832352
C     7.865352    6.092444    6.834401
C    27.085282   17.188693    6.809506
C    10.000528    4.859246    6.826212
C    29.221199   15.955957    6.777894
C    14.271358    2.392731    6.802646
C    33.492953   13.490097    6.765220
C     1.459220   12.257234    6.793491
C    20.679045    1.159295    6.823914
C     3.594658   11.024378    6.820518
C    12.135846    6.092396    6.791336
C    31.357096   17.188926    6.734873
C    16.407132    3.625649    6.761655
C     5.730130    9.791561    6.832429
C     7.865346    8.558694    6.829489
C    27.085526   19.654381    6.813912
C    10.000489    7.325684    6.816025
C    29.221254   18.421716    6.774729
C    14.271356    4.859015    6.764152
C    33.492848   15.955961    6.723411
C    18.543187    2.392467    6.789898
C     1.459055   14.723084    6.749424
C    20.679011    3.625335    6.800240
C     3.594461   13.490292    6.790224
C    22.814645    2.392115    6.832059
C     5.729970   12.257476    6.817962
C    24.950064    1.159308    6.834544
C     7.865345   11.024716    6.823018
C    12.135673    8.558971    6.780477
C    31.357269   19.654889    6.747685
C    16.407207    6.092089    6.723287
C    10.000471    9.791955    6.809454
C    14.271285    7.325569    6.741794
C    33.492856   18.422098    6.715897
C    18.543152    4.858715    6.749776
C    12.135696   11.025209    6.788634
C     1.459126   17.189123    6.723225
C    20.678979    6.091862    6.788665
C     3.594340   15.956197    6.762471
C    22.814733    4.858508    6.830511
C     5.729748   14.723412    6.801644
C    24.950285    3.625449    6.841525
C     7.865339   13.490631    6.818811
C    27.085787    2.392588    6.827936
C    10.000610   12.257890    6.812412
C    29.221542    1.159844    6.794140
C    16.407162    8.558871    6.727023
C    14.271182    9.792268    6.752613
C    18.543126    7.325309    6.740588
C    12.135797   13.490925    6.810710
C    31.357452    2.392981    6.785926
C     1.459207   19.655140    6.736314
C    20.678932    8.558476    6.798461
C     3.594335   18.422105    6.757716
C    22.814778    7.325201    6.834098
C     5.729639   17.189243    6.793597
C    24.950408    6.092008    6.848337
C     7.865174   15.956359    6.818369
C    27.085940    4.858814    6.842264
C    10.000617   14.723575    6.822637
C    29.221681    3.625776    6.821490
C    16.407017   11.025143    6.768044
C    14.271178   12.258172    6.789727
C    33.493029    1.160378    6.748983
C    18.543026    9.791816    6.768102
C    15.693569   14.723556    6.833459
C     0.746552    1.160450    6.750935
C    19.965564   12.258014    6.831457
C    22.101561   11.025014    6.841408
C    24.237447    9.791782    6.848845
C     7.152324   19.654737    6.818849
C    26.373083    8.558518    6.849083
C     9.287792   18.421851    6.832743
C    28.508697    7.325272    6.844939
C    13.558205   15.956319    6.835215
C    32.780430    4.859070    6.817656
C    17.829563   13.490765    6.830279
C    11.423084   17.188978    6.836599
C    30.644639    6.092071    6.835290
C    15.693600   17.189039    6.845477
C     0.746682    3.626144    6.798010
C    19.965624   14.723712    6.853936
C     2.881967    2.393210    6.790012
C    22.101513   13.490939    6.852475
C     5.017102    1.160175    6.800048
C    24.237155   12.257838    6.848201
C    26.372750   11.024676    6.842243
C    28.508577    9.791550    6.838551
C    13.558203   18.421646    6.840236
C    32.780439    7.325319    6.835634
C    17.829446   15.956380    6.852337
C    11.423016   19.654444    6.838326
C    30.644571    8.558463    6.837728
C     0.746795    6.092265    6.829680
C    19.965592   17.188934    6.852340
C     9.287841    1.159855    6.835168
C    28.508323   12.257436    6.820449
C    32.780322    9.791474    6.825943
C    15.693826   19.654494    6.830102
C     2.882103    4.859249    6.823346
C    22.101322   15.956230    6.852171
C     5.017337    3.626081    6.822603
C    24.236726   14.723406    6.844241
C     7.152588    2.392959    6.828448
C    26.372371   13.490418    6.831448
C    30.644400   11.024496    6.818791
C    17.829561   18.421690    6.842711
C     0.746745    8.558428    6.834279
C    19.965661   19.654121    6.833440
C     2.882191    7.325427    6.837870
C    22.101278   18.421305    6.843587
C     5.017527    6.092373    6.837124
C    24.236639   17.188652    6.838905
C     7.152784    4.859220    6.835481
C    26.372115   15.955970    6.821648
C     9.287960    3.625926    6.833320
C    28.508039   14.723114    6.798589
C    13.558452    1.159721    6.824703
C    32.780176   12.257307    6.790989
C    11.423181    2.392707    6.828636
C    30.644209   13.490201    6.784736
C     0.746622   11.024381    6.811361
C    15.694062    2.392660    6.790706
C     2.882097    9.791452    6.830045
C     5.017556    8.558569    6.837785
C    24.236842   19.654039    6.836045
C     7.152866    7.325610    6.835655
C    26.372216   18.421505    6.819433
C     9.288032    6.092426    6.827323
C    28.508000   17.188836    6.786614
C    13.558588    3.625811    6.793391
C    32.780003   14.723034    6.744981
C    17.829865    1.159596    6.809763
C    11.423246    4.859096    6.811865
C    30.644027   15.955956    6.753669
C     0.746417   13.490169    6.767547
C    19.965822    2.392207    6.802895
C     2.881889   12.257342    6.802036
C    22.101512    1.159135    6.832003
C     5.017437   11.024584    6.825220
C    15.694024    4.858855    6.743951
C     7.152848    9.791802    6.829657
C     9.288011    8.558899    6.819386
C    28.508243   19.654545    6.794241
C    13.558515    6.092350    6.763456
C    32.779895   17.189046    6.718415
C    17.829971    3.625483    6.761779
C    11.423161    7.325712    6.796685
C    30.644046   18.421838    6.748795
C     0.746351   15.956013    6.726477
C    19.965769    4.858567    6.776074
C     2.881728   14.723221    6.765473
C    22.101599    3.625226    6.822304
C     5.017171   13.490471    6.804163
C    24.237183    2.392253    6.837806
C     7.152760   12.257745    6.821370
C    26.372597    1.159564    6.826828
C     9.288091   11.025065    6.815671
C    15.694031    7.325487    6.722646
C    13.558356    8.558969    6.755066
C    32.780021   19.654983    6.732388
C    17.829915    6.091968    6.728419
C    11.423078    9.792204    6.792519
C     0.746441   18.422152    6.718833
C    19.965774    7.325234    6.773113
C     2.881691   17.189181    6.744032
C    22.101511    6.091838    6.819999
C     5.016965   15.956312    6.786008
C    24.237397    4.858580    6.843042
C     7.152644   14.723569    6.814718
C    26.372931    3.625612    6.839245
C     9.288107   13.490844    6.819268
C    28.508560    2.392698    6.815881
C    13.558345   11.025269    6.774770
C    11.423179   12.258234    6.803925
C    30.644356    1.160036    6.774689
C    15.693965    9.792235    6.743362
C    17.829880    8.558771    6.738131
C    15.693712   12.258097    6.791599
C    19.965700    9.791781    6.795580
C     2.881774   19.655013    6.755132
C    22.101529    8.558507    6.827419
C     5.016982   18.422050    6.783859
C    24.237501    7.325291    6.847261
C     7.152384   17.189195    6.813238
C    26.373124    6.092040    6.848453
C     9.287944   15.956379    6.826681
C    28.508712    4.858843    6.836567
C    13.558297   13.490997    6.809520
C    32.780280    2.393120    6.776115
C    17.829771   11.025077    6.780472
C    11.423237   14.723667    6.823138
C    30.644575    3.625838    6.811210
C    10.704873   18.418519   10.072973
C    29.945560    7.325186   10.094975
C     2.171558    1.159602   10.010240
C    21.414775   12.265492   10.117086
C    12.840696   17.187615   10.074972
C    32.077074    6.091724   10.081618
C     0.040872    2.392443   10.019421
C    19.269655   13.493003   10.107624
C     8.569493   19.652150   10.068177
C    27.815197    8.559341   10.096482
C    14.977215   15.959256   10.094328
C    25.684548    9.795556   10.097196
C    17.116562   14.728983   10.121185
C    23.553547   11.032029   10.113730
C    14.979409   18.418468   10.083758
C     6.435404    1.158519   10.055365
C    25.682372   12.261340   10.094853
C    17.119062   17.193752   10.120045
C    29.945231    9.792411   10.080569
C     2.171820    3.625902   10.047933
C    21.415063   14.730592   10.127663
C    12.838120   19.644507   10.071740
C    32.076651    8.558603   10.086188
C     4.303095    2.392328   10.045539
C    23.548673   13.497461   10.116205
C     0.040157    4.859045   10.062287
C    19.269881   15.963542   10.126840
C    27.814079   11.026674   10.080553
C    10.702994    1.154356   10.074173
C    29.945411   12.258323   10.048460
C     8.568650    2.389856   10.079720
C    27.812694   13.491889   10.059951
C     6.435561    3.625002   10.077367
C    25.679818   14.725377   10.086544
C    17.121471   19.646379   10.063037
C     2.171432    6.092601   10.085016
C    21.408261   17.191227   10.115100
C    32.077182   11.024807   10.055699
C     4.303391    4.859195   10.079303
C    23.545346   15.958531   10.110068
C     0.039268    7.325503   10.088399
C    19.266356   18.421296   10.102598
C    14.982089    1.148768   10.025622
C    10.699382    3.619359   10.072284
C    29.945528   14.723616   10.020532
C     2.171147    8.558739   10.091137
C    21.407479   19.648153   10.082814
C    12.835628    2.384855   10.031154
C    32.077759   13.490616   10.016639
C     4.303411    7.325994   10.097340
C    23.544349   18.418801   10.095762
C     0.039283    9.791465   10.073828
C     8.567925    4.858137   10.088913
C    27.812318   15.956083   10.045574
C     6.435883    6.092646   10.093746
C    25.678366   17.188221   10.079172
C     8.567696    7.326531   10.085029
C    27.812681   18.420505   10.043902
C    14.981668    3.622412    9.950792
C     6.436181    8.559388   10.088228
C    25.679324   19.650687   10.074830
C    17.124669    2.385591    9.970422
C    10.698371    6.093343   10.079721
C    29.945975   17.188740   10.009308
C     2.171431   11.024232   10.061090
C    12.836568    4.856210   10.000453
C    32.078368   15.956236    9.991755
C     4.303653    9.791769   10.083359
C     0.040010   12.257234   10.033156
C    19.267995    1.150267   10.039287
C    14.979079    6.088961    9.913855
C    10.699713    8.562223   10.060446
C    29.946682   19.653300   10.017290
C     2.171526   13.490015   10.021221
C    21.411869    2.380876   10.046211
C    12.834746    7.328780   10.023850
C    32.078783   18.421537    9.988590
C     4.303789   12.257305   10.050689
C    23.545595    1.149971   10.077468
C     0.040294   14.723297    9.997116
C    19.269053    3.616092    9.940150
C     8.568836    9.793183   10.064343
C     6.436501   11.025209   10.066272
C    17.119246    4.857146    9.882323
C     8.570220   12.259408   10.047964
C    27.814189    1.157056   10.054410
C    14.974682    8.561542    9.943743
C     6.436794   13.490956   10.045475
C    25.683704    2.385817   10.073903
C    17.121675    7.325679    9.917693
C    10.702316   11.029428   10.036726
C     2.171294   15.955994    9.995349
C    21.409777    4.847011   10.006561
C    12.835037    9.797290   10.017575
C     4.303431   14.723214   10.022783
C    23.550322    3.612147   10.064014
C     0.040509   17.189077    9.980948
C    19.265608    6.086354    9.945230
C    10.704827   13.494230   10.037548
C    29.946721    2.390779   10.042883
C     2.171260   18.421675    9.991205
C    21.408771    7.321996   10.054613
C    12.836870   12.266726   10.014350
C    32.078938    1.159009   10.008014
C     4.302872   17.188957   10.011532
C    23.553144    6.087621   10.106013
C     0.040891   19.654269    9.988751
C    19.267516    8.560199    9.955995
C     8.571203   14.724628   10.047098
C    27.815889    3.622467   10.074663
C    14.977940   11.034593    9.940679
C     6.436617   15.956413   10.036261
C    25.689590    4.854385   10.087590
C    17.121947    9.791757    9.942077
C     8.570758   17.188637   10.055972
C    27.816230    6.090710   10.096755
C    14.975918   13.497203   10.047022
C     6.436000   18.421219   10.040018
C    25.689628    7.325925   10.101181
C    17.118493   12.259256   10.009141
C    10.705722   15.956880   10.056552
C    29.945966    4.857282   10.076914
C    21.409737    9.797407   10.070378
C    12.840428   14.727532   10.048233
C    32.078331    3.624879   10.045409
C     4.302680   19.654210   10.019544
C    23.554272    8.565461   10.096666
C    19.267185   11.027679    9.989425
C    15.685858   14.728753   10.095054
C    22.128573   11.032862   10.105425
C    13.552092   15.957696   10.070314
C    32.788831    4.858436   10.062892
C     0.751437    1.159416   10.002229
C    19.980698   12.258128   10.086916
C    24.266517    9.800088   10.103170
C     9.281488   18.420252   10.065936
C    28.525910    7.325415   10.097957
C    11.416931   17.187897   10.067403
C    30.656690    6.091311   10.086219
C     7.147212   19.653389   10.054218
C    26.396683    8.560943   10.096900
C    17.831613   13.492636   10.087904
C    15.691778   17.189677   10.103511
C    26.393743   11.029170   10.090902
C     2.882297    2.392558   10.032158
C    22.126500   13.500994   10.127682
C    13.552310   18.416824   10.077565
C    32.787947    7.325353   10.087665
C     0.751331    3.625771   10.041415
C    19.986410   14.729868   10.123659
C     5.013859    1.159204   10.038269
C    24.261664   12.264798   10.108684
C    28.525378    9.793613   10.085943
C    11.415022   19.648885   10.073816
C    30.656373    8.559032   10.088750
C    17.832714   15.963560   10.129889
C     9.279780    1.157051   10.075985
C    28.524686   12.259575   10.061684
C    15.694765   19.644642   10.059501
C     7.146382    2.391419   10.071445
C    26.391690   13.493988   10.080332
C    17.836389   18.420808   10.097852
C     2.882434    4.859353   10.071644
C    22.122024   15.960840   10.119036
C    32.787957    9.791737   10.072635
C     0.750741    6.092534   10.080470
C    19.983415   17.195117   10.120707
C     5.014217    3.625524   10.067503
C    24.257565   14.728713   10.106043
C    30.656515   11.025656   10.060667
C     2.882447    7.325816   10.094854
C    22.120038   18.419728   10.100140
C    13.549931    1.148007   10.041578
C    32.788513   12.257654   10.032815
C     0.750318    8.558585   10.087208
C    19.981727   19.646536   10.079530
C     5.014539    6.092676   10.092976
C    24.255810   17.188989   10.097213
C     9.278055    3.623489   10.083840
C    28.523933   14.724305   10.039425
C    11.409466    2.386154   10.060995
C    30.656872   13.491041   10.025435
C     7.146667    4.858784   10.088324
C    26.390309   15.956822   10.070060
C     9.277066    6.092472   10.088510
C    28.524051   17.188385   10.030247
C    15.691491    2.386504    9.978567
C     7.146795    7.326131   10.090789
C    26.390144   18.419666   10.066119
C    17.834414    1.150474   10.020532
C     2.882535    9.791508   10.081080
C    13.551166    3.620242    9.990833
C    32.789018   14.723572    9.997964
C     0.750692   11.024216   10.055825
C     5.014777    8.559091   10.092942
C    24.256610   19.648083   10.084207
C    11.410338    4.855823   10.057137
C    30.657301   15.956133   10.003296
C     2.882597   12.257083   10.043564
C    22.121229    1.149522   10.068509
C    13.550142    6.091714    9.994296
C    32.789527   17.189003    9.982864
C     0.751066   13.490229   10.014163
C    19.981330    2.383524   10.005928
C     9.278060    8.560013   10.070135
C    28.525015   19.652301   10.036574
C    11.410749    7.329031   10.060272
C    30.657861   18.421125   10.001238
C    15.691351    4.856173    9.916034
C     7.147350    9.792246   10.073967
C    17.834810    3.619775    9.918036
C     5.015045   11.024596   10.068100
C    15.688121    7.324570    9.900816
C     7.148039   12.258135   10.053164
C    26.392463    1.154157   10.068379
C    17.832325    6.089344    9.866577
C     2.882362   14.723108   10.010312
C    22.122195    3.610438   10.049024
C    13.546999    8.562615    9.992167
C    32.789806   19.654016    9.990928
C     0.750973   15.956243    9.987225
C    19.981222    4.850423    9.948885
C     5.015080   13.490288   10.038894
C    24.261423    2.378948   10.074092
C     9.280195   11.026611   10.048215
C    11.410770    9.796854   10.040741
C     2.881976   17.188870    9.995894
C    22.123632    6.084487   10.057686
C     0.751137   18.421656    9.982747
C    19.976132    7.323667    9.980237
C     9.281962   13.492241   10.043001
C    28.525875    2.389147   10.056391
C    11.414185   12.262533   10.026733
C    30.658061    1.158152   10.019540
C    15.688821    9.795931    9.926275
C     7.148453   14.723870   10.042360
C    26.396440    3.618744   10.076838
C    17.830843    8.559862    9.923047
C    13.547861   11.034525    9.988572
C     5.014576   15.956180   10.021624
C    24.268691    4.850095   10.073401
C    15.688290   12.266801   10.003749
C     7.148112   17.189004   10.043378
C    26.398880    6.090485   10.097131
C    17.832396   11.027501    9.949384
C     2.881971   19.654277   10.003379
C    22.125538    8.563509   10.081050
C    13.549956   13.497257   10.027983
C    32.789667    2.391941   10.021049
C    19.978764    9.794174    9.984129
C     5.013994   18.421577   10.021327
C    24.270030    7.326974   10.098123
C     9.282719   15.956649   10.052533
C    28.526132    4.856058   10.083659
C    11.416500   14.725842   10.044179
C    30.657416    3.623849   10.053881
