547       
Geometry optimisation iteration:     3
Li    6.439317    3.545260    8.766342
Li    6.885003    6.548991    8.933105
Li    6.954625    4.733576   12.038808
C    10.020347    4.864010    6.849645
C     7.163695    4.865020    6.870384
C     7.880329    6.104655    6.837979
C     9.312049    6.103061    6.838726
C    27.092477   14.728200    6.851391
C    24.242276   14.728299    6.852906
C    24.952961   15.964111    6.852256
C    26.381829   15.964074    6.851331
C     7.878445    3.624156    6.843888
C     9.310094    3.625578    6.847953
C    11.435958    7.331977    6.842727
C    10.015414    7.332932    6.823591
C     7.166420    7.340281    6.814756
C     7.875711    8.570743    6.834969
C     9.305656    8.566949    6.836142
C    24.952969   13.492438    6.853193
C    26.381810   13.492452    6.852297
C    28.511512   17.193996    6.853930
C    27.089112   17.194054    6.840858
C    24.245723   17.194064    6.841712
C    24.952968   18.424090    6.853828
C    26.381875   18.424169    6.853022
C     7.874827    1.159450    6.845221
C     9.303777    1.163062    6.848836
C    12.145330    1.160412    6.852177
C     5.022059    1.153420    6.841363
C    33.492208    1.167697    6.856895
C     3.592294    1.156782    6.848536
C    16.414474    1.168057    6.857518
C     0.751466    1.166266    6.854101
C    13.573662    1.161692    6.855714
C    17.843224    1.168326    6.858721
C    20.683784    1.162472    6.857862
C    29.222508    1.162427    6.856489
C    30.651524    1.162327    6.856164
C    24.953046    1.168289    6.855414
C    22.112594    1.162391    6.857419
C    26.381858    1.168288    6.854665
C    10.013341    2.396419    6.834652
C     7.165898    2.389191    6.819665
C     5.734215    2.387522    6.825661
C    14.285267    2.397659    6.855867
C     2.880132    2.395836    6.849594
C    11.434918    2.396966    6.847851
C    31.362456    2.398110    6.855920
C     1.458877    2.396987    6.840561
C    18.550825    2.398269    6.847046
C    32.784671    2.397859    6.844888
C    15.707010    2.398068    6.845550
C    22.823420    2.398342    6.857567
C    27.089190    2.398360    6.844526
C    19.973040    2.398420    6.858076
C    28.511572    2.398314    6.856793
C    24.245652    2.398361    6.845290
C    12.146765    3.632988    6.849363
C    33.492443    3.628053    6.855676
C     3.587244    3.632138    6.848954
C    16.414725    3.628430    6.857295
C    20.683938    3.634372    6.858106
C    30.651449    3.634154    6.855873
C     0.751169    3.627484    6.852858
C     5.019105    3.632354    6.839197
C    13.574492    3.633991    6.853695
C    17.843254    3.628438    6.858653
C    29.222706    3.634354    6.856872
C    24.953099    3.628447    6.857816
C    22.112543    3.634342    6.858040
C    26.381808    3.628470    6.856993
C    27.092784    4.864426    6.856837
C    31.359183    4.864376    6.844473
C     1.462543    4.864478    6.852720
C    14.281995    4.864353    6.843377
C    18.554358    4.864435    6.858680
C    22.820021    4.864466    6.846689
C    28.515004    4.864421    6.845473
C    32.781176    4.864398    6.856101
C     2.882521    4.863909    6.843476
C    11.440097    4.864305    6.837240
C    15.703839    4.864402    6.856309
C    19.976547    4.864492    6.846890
C    24.242109    4.864477    6.858426
C     5.729479    4.864524    6.856128
C    24.953084    6.100481    6.858309
C    29.222737    6.094412    6.857560
C    33.492610    6.100489    6.855773
C    16.414816    6.100423    6.856677
C    20.683982    6.094591    6.858372
C    26.381846    6.100373    6.857461
C    30.651472    6.094439    6.856177
C     0.751205    6.101233    6.853224
C    17.843361    6.100400    6.858127
C    22.112571    6.094596    6.858539
C     3.591488    6.096703    6.861406
C    12.147285    6.095668    6.847311
C    13.574723    6.094903    6.852695
C     5.019149    6.098431    6.874434
C    24.245656    7.330546    6.846878
C    22.823476    7.330570    6.858550
C    27.089276    7.330443    6.846009
C    31.362805    7.330488    6.855756
C    18.550958    7.330611    6.846833
C    28.511618    7.330465    6.857829
C    32.784711    7.330760    6.844518
C    15.707197    7.330823    6.844891
C    19.973073    7.330566    6.858186
C     1.460019    7.331407    6.841133
C    14.285606    7.331168    6.854407
C     2.881086    7.332445    6.855481
C     5.734029    7.337631    6.863187
C    24.953125    8.560647    6.858219
C    29.222644    8.566269    6.857547
C    22.112665    8.566568    6.858402
C    26.381932    8.560564    6.857369
C    20.683880    8.566513    6.858308
C    33.492747    8.560878    6.856757
C    16.414756    8.560891    6.857395
C    30.651633    8.566366    6.856511
C    17.843366    8.560586    6.858828
C     3.593529    8.570757    6.857417
C     0.752314    8.562038    6.855117
C    13.574106    8.567313    6.853398
C    12.146219    8.568973    6.847659
C     5.022954    8.573518    6.858711
C    27.092708    9.796482    6.856110
C    24.242288    9.796579    6.857622
C    22.819973    9.796636    6.846284
C    28.515148    9.796446    6.845256
C    18.554197    9.796709    6.858662
C    31.359207    9.796364    6.845021
C    19.976509    9.796585    6.846667
C    32.781535    9.796629    6.856835
C    15.703836    9.796907    6.856524
C     1.463427    9.797662    6.854971
C    14.281742    9.797632    6.844077
C     2.886623    9.798826    6.843236
C     5.734211    9.802533    6.837117
C    10.014606    9.799646    6.845390
C    11.438262    9.798776    6.836757
C     7.159868    9.803937    6.844390
C    24.953025   11.032469    6.856040
C    26.381954   11.032323    6.855216
C    29.222611   11.026334    6.856905
C    22.112673   11.026659    6.857339
C    16.414442   11.032848    6.857295
C    20.683857   11.026681    6.857454
C    33.492891   11.032600    6.856960
C    17.843356   11.032655    6.858250
C    30.651595   11.026618    6.856422
C     0.752665   11.033306    6.856565
C     3.595454   11.028883    6.854978
C    12.144555   11.028003    6.854067
C    13.573701   11.027274    6.856378
C     7.871650   11.036238    6.850286
C     5.025690   11.028930    6.852193
C     9.302049   11.036051    6.849627
C    27.089235   12.262413    6.842451
C    24.245764   12.262475    6.843326
C    22.823381   12.262518    6.855944
C    31.362546   12.262211    6.855790
C    19.973159   12.262527    6.856845
C    28.511597   12.262316    6.855488
C    14.284542   12.263159    6.857034
C    18.550779   12.262604    6.846212
C     1.461015   12.263016    6.845627
C    15.706553   12.262599    6.845575
C    32.784965   12.262444    6.845296
C     5.738592   12.264929    6.854032
C    10.009530   12.264027    6.842291
C     2.884385   12.263274    6.856984
C    11.432763   12.263946    6.854488
C     7.161311   12.265414    6.842390
C    29.222604   13.498193    6.855142
C    16.414359   13.492731    6.857274
C    20.683848   13.498354    6.856229
C    33.492975   13.492092    6.857765
C     3.596183   13.498858    6.857856
C    13.572949   13.498782    6.856817
C    17.843004   13.492501    6.858223
C    22.112715   13.498356    6.855612
C    30.651523   13.498116    6.855353
C     0.753054   13.492242    6.857849
C    12.143627   13.498952    6.856905
C     7.870640   13.493556    6.857473
C     5.026167   13.498743    6.857923
C     9.300383   13.493576    6.857179
C    10.012129   14.728446    6.858331
C    14.280753   14.728407    6.845076
C    18.554041   14.728453    6.857617
C    31.359312   14.728031    6.844002
C     1.464371   14.727930    6.857314
C     5.735370   14.728054    6.848034
C    11.435463   14.728460    6.845983
C    15.703097   14.728352    6.856450
C    19.976409   14.728340    6.844873
C    28.514910   14.728123    6.841682
C    32.781678   14.728020    6.857104
C     2.887623   14.727845    6.846719
C     7.158048   14.728266    6.859116
C    22.819972   14.728329    6.842760
C     7.870554   15.963208    6.858591
C    12.143436   15.957956    6.857607
C    16.414161   15.964083    6.857000
C    33.492881   15.963707    6.857503
C     3.596044   15.957022    6.858737
C     9.300197   15.963291    6.858284
C    13.572816   15.958120    6.857309
C    17.842911   15.964283    6.857776
C     0.753028   15.963481    6.858220
C     5.025994   15.956992    6.859158
C    20.683796   15.958344    6.855763
C    29.222486   15.958081    6.854448
C    30.651401   15.957976    6.854693
C    22.112688   15.958272    6.855016
C     7.161148   17.191292    6.844493
C     5.738460   17.191080    6.856140
C    10.008958   17.192991    6.844991
C    14.284187   17.193779    6.857392
C     1.460724   17.192702    6.846088
C    11.432271   17.193093    6.856306
C    15.706382   17.194158    6.845619
C    32.784688   17.193405    6.844962
C     2.884056   17.192678    6.857034
C    18.550618   17.194137    6.845634
C    31.362455   17.193850    6.854753
C    19.973033   17.194089    6.855865
C    22.823361   17.194093    6.854403
C     7.870954   18.420909    6.853997
C    12.144008   18.428848    6.856191
C     5.025448   18.426603    6.853079
C     9.301219   18.421152    6.854551
C     3.595123   18.426771    6.853161
C    16.414189   18.423891    6.857470
C    33.492508   18.423386    6.857610
C    13.573179   18.429409    6.857052
C     0.752301   18.422504    6.856928
C    20.683763   18.429952    6.855913
C    17.843124   18.424040    6.858185
C    30.651404   18.429586    6.854926
C    29.222514   18.429910    6.854916
C    22.112632   18.429945    6.855315
C    10.013865   19.657555    6.852656
C     7.159161   19.653774    6.848696
C     5.734007   19.653182    6.835918
C    11.437321   19.658192    6.841713
C     1.462703   19.658081    6.853596
C    14.281279   19.659186    6.845041
C     2.885901   19.657095    6.840248
C    15.703390   19.659814    6.856761
C    32.781114   19.659194    6.857249
C    18.554050   19.659894    6.858374
C    31.358957   19.659721    6.844532
C    19.976408   19.659994    6.845830
C    22.819918   19.659969    6.844215
C    27.092637   19.659988    6.853539
C    28.515045   19.659935    6.843265
C    24.242222   19.659976    6.854933
Li    0.031098   19.658172    4.972029
Li    0.032913   14.728103    4.973427
Li    0.030837    9.796955    4.972123
Li    0.027743    4.863972    4.970273
Li    4.306838   17.189024    4.971648
Li    4.306746   12.266545    4.970703
Li    4.301363    7.334354    4.975848
Li    4.288398    2.384434    4.961560
Li    8.604185    4.858972    4.965519
Li    8.594851    9.812004    4.962336
Li    8.589891   14.728306    4.970858
Li    8.594434   19.648294    4.968129
Li   12.865189   17.191655    4.972980
Li   12.865321   12.264228    4.971582
Li   12.871256    7.332024    4.966268
Li   12.869270    2.396017    4.968869
Li   17.137700   19.660368    4.972702
Li   17.137566   14.728286    4.972773
Li   17.137593    9.795211    4.972576
Li   17.138264    4.863890    4.973339
Li   21.402028   17.193063    4.969316
Li   21.402215   12.262313    4.970613
Li   21.402192    7.330811    4.974127
Li   21.402039    2.397821    4.973566
Li   25.660764   19.660683    4.968686
Li   25.660609   14.727989    4.965176
Li   25.660939    9.795224    4.971779
Li   25.660988    4.863667    4.973902
Li   29.927058   17.192993    4.968858
Li   29.926939   12.261997    4.970404
Li   29.926948    7.330399    4.972405
Li   29.926885    2.398133    4.972092
C    10.010582    4.864325    3.085814
C     7.157571    4.864245    3.099669
C     7.869218    6.100543    3.096129
C     9.299024    6.100631    3.088842
C    27.093161   14.728181    3.075120
C    24.241860   14.728196    3.073931
C    24.953228   15.964142    3.073958
C    26.381885   15.964090    3.074466
C     7.869122    3.627879    3.095707
C     9.299046    3.627949    3.088071
C    11.430118    7.330585    3.080293
C    10.007192    7.330675    3.095780
C     7.161018    7.330705    3.106272
C     7.869240    8.560779    3.086364
C     9.298878    8.560653    3.081675
C    24.953205   13.492234    3.074264
C    26.381925   13.492234    3.074810
C    28.512169   17.194121    3.075608
C    27.089874   17.194189    3.086534
C    24.245200   17.194283    3.086284
C    24.953155   18.424318    3.075360
C    26.381889   18.424375    3.075929
C     7.869117    1.167855    3.088195
C     9.298722    1.168041    3.083761
C    12.141219    1.162466    3.078752
C     5.026386    1.161904    3.084670
C    33.494328    1.168325    3.080192
C     3.596567    1.161897    3.079613
C    16.412506    1.168422    3.081204
C     0.754374    1.168283    3.080887
C    13.570527    1.162368    3.077598
C    17.841512    1.168453    3.081140
C    20.683103    1.162723    3.080888
C    29.223487    1.162520    3.078549
C    30.652460    1.162600    3.079894
C    24.953169    1.168572    3.077608
C    22.111800    1.162728    3.079646
C    26.381888    1.168521    3.078015
C    10.007166    2.398009    3.096126
C     7.160752    2.397850    3.106503
C     5.737766    2.397948    3.093353
C    14.281928    2.398480    3.077671
C     2.884978    2.398275    3.080689
C    11.430041    2.398227    3.081244
C    31.363622    2.398512    3.081106
C     1.462249    2.398296    3.092102
C    18.549582    2.398552    3.093041
C    32.786259    2.398429    3.091549
C    15.704529    2.398513    3.091229
C    22.823032    2.398594    3.080409
C    27.089806    2.398576    3.090556
C    19.971963    2.398577    3.082258
C    28.512169    2.398561    3.079051
C    24.245190    2.398612    3.090716
C    12.141379    3.634238    3.079809
C    33.494360    3.628501    3.078919
C     3.596611    3.634354    3.086988
C    16.412519    3.628599    3.080664
C    20.683104    3.634400    3.082346
C    30.652477    3.634369    3.080686
C     0.754382    3.628566    3.080718
C     5.026256    3.634065    3.094951
C    13.570610    3.634340    3.077472
C    17.841594    3.628508    3.080949
C    29.223465    3.634406    3.080224
C    24.953143    3.628597    3.080138
C    22.111836    3.634427    3.081735
C    26.381885    3.628627    3.080472
C    27.093074    4.864450    3.081964
C    31.360442    4.864478    3.091395
C     1.465757    4.864451    3.083427
C    14.278762    4.864460    3.089187
C    18.552852    4.864460    3.081234
C    22.819767    4.864430    3.093044
C    28.515422    4.864470    3.092365
C    32.783074    4.864473    3.078868
C     2.888492    4.864407    3.098913
C    11.433477    4.864411    3.092688
C    15.701359    4.864462    3.080488
C    19.975186    4.864459    3.093494
C    24.241918    4.864453    3.081200
C     5.734695    4.864164    3.111171
C    24.953153    6.100269    3.081569
C    29.223452    6.094486    3.080309
C    33.494500    6.100415    3.079336
C    16.412556    6.100295    3.080499
C    20.683134    6.094463    3.082125
C    26.381883    6.100283    3.081922
C    30.652545    6.094530    3.080516
C     0.754595    6.100301    3.081756
C    17.841570    6.100380    3.081093
C    22.111871    6.094421    3.081724
C     3.596833    6.094434    3.090073
C    12.141381    6.094566    3.078694
C    13.570674    6.094522    3.075933
C     5.026412    6.094457    3.096333
C    24.245240    7.330267    3.092614
C    22.823083    7.330251    3.081484
C    27.089806    7.330317    3.092577
C    31.363695    7.330375    3.081379
C    18.549603    7.330339    3.092871
C    28.512181    7.330363    3.080309
C    32.786408    7.330415    3.091570
C    15.704595    7.330425    3.090047
C    19.971996    7.330305    3.082425
C     1.462669    7.330427    3.094276
C    14.281988    7.330446    3.075887
C     2.885567    7.330348    3.086255
C     5.737971    7.330565    3.095037
C    24.953188    8.560248    3.080238
C    29.223535    8.566324    3.080353
C    22.111841    8.566123    3.081222
C    26.381937    8.560336    3.080705
C    20.683153    8.566133    3.081857
C    33.494564    8.560412    3.079902
C    16.412517    8.560482    3.080091
C    30.652555    8.566247    3.081090
C    17.841540    8.560416    3.080586
C     3.597054    8.566341    3.085463
C     0.754749    8.560350    3.081427
C    13.570553    8.566515    3.076028
C    12.141288    8.566358    3.077433
C     5.026547    8.566479    3.088388
C    27.093078    9.796249    3.080642
C    24.241897    9.796161    3.079481
C    22.819835    9.796170    3.091347
C    28.515438    9.796299    3.091425
C    18.552868    9.796313    3.080843
C    31.360594    9.796340    3.092084
C    19.975205    9.796272    3.092574
C    32.783253    9.796291    3.080199
C    15.701273    9.796455    3.080856
C     1.466042    9.796328    3.082290
C    14.278629    9.796437    3.089858
C     2.888854    9.796382    3.093911
C     5.734810    9.796580    3.095314
C    10.010341    9.796553    3.076304
C    11.433246    9.796550    3.088448
C     7.157770    9.796590    3.082084
C    24.953219   11.032070    3.078322
C    26.381881   11.032014    3.078891
C    29.223537   11.026304    3.078796
C    22.111835   11.026245    3.079115
C    16.412428   11.032269    3.081595
C    20.683098   11.026259    3.080179
C    33.494608   11.032300    3.080638
C    17.841535   11.032277    3.081132
C    30.652600   11.026384    3.080176
C     0.754769   11.032187    3.081377
C     3.597085   11.026343    3.080552
C    12.141172   11.026529    3.077998
C    13.570505   11.026494    3.078598
C     7.869121   11.032550    3.076536
C     5.026589   11.026502    3.080698
C     9.298922   11.032529    3.074598
C    27.089885   12.262196    3.088202
C    24.245235   12.262125    3.087909
C    22.823068   12.262127    3.077695
C    31.363810   12.262298    3.081218
C    19.971862   12.262244    3.080490
C    28.512239   12.262238    3.077272
C    14.281730   12.262281    3.079896
C    18.549476   12.262284    3.092241
C     1.462864   12.262230    3.092400
C    15.704441   12.262351    3.092526
C    32.786521   12.262239    3.092651
C     5.737868   12.262302    3.079471
C    10.007074   12.262492    3.087983
C     2.885660   12.262224    3.079891
C    11.429941   12.262337    3.078788
C     7.160877   12.262474    3.089161
C    29.223542   13.498099    3.077305
C    16.412387   13.492365    3.081207
C    20.683063   13.498082    3.079041
C    33.494606   13.492261    3.080877
C     3.597009   13.498170    3.078904
C    13.570457   13.498241    3.079766
C    17.841463   13.492302    3.080198
C    22.111766   13.498103    3.077436
C    30.652616   13.498077    3.079704
C     0.754722   13.492302    3.081185
C    12.141190   13.498180    3.079722
C     7.869156   13.492433    3.078004
C     5.026469   13.498211    3.078905
C     9.298745   13.492344    3.077480
C    10.010202   14.728276    3.079084
C    14.278572   14.728241    3.092016
C    18.552763   14.728211    3.079392
C    31.360556   14.728126    3.091195
C     1.465954   14.728150    3.081365
C     5.734742   14.728195    3.090654
C    11.433016   14.728253    3.091182
C    15.701216   14.728197    3.081773
C    19.975048   14.728197    3.090052
C    28.515447   14.728190    3.087322
C    32.783290   14.728137    3.080766
C     2.888720   14.728132    3.091083
C     7.157735   14.728256    3.079654
C    22.819781   14.728201    3.086972
C     7.869120   15.964127    3.079374
C    12.141167   15.958285    3.080015
C    16.412390   15.963991    3.081273
C    33.494583   15.964003    3.080772
C     3.596985   15.958140    3.078980
C     9.298692   15.964195    3.078877
C    13.570416   15.958187    3.079683
C    17.841409   15.964115    3.080027
C     0.754648   15.963963    3.081256
C     5.026439   15.958178    3.079187
C    20.683058   15.958339    3.077776
C    29.223527   15.958199    3.075974
C    30.652587   15.958170    3.078441
C    22.111749   15.958308    3.076165
C     7.160848   17.194034    3.091211
C     5.737784   17.194027    3.080784
C    10.007010   17.194089    3.090181
C    14.281738   17.194145    3.080254
C     1.462759   17.194044    3.092182
C    11.429892   17.194143    3.080366
C    15.704419   17.194090    3.092414
C    32.786414   17.194066    3.091846
C     2.885581   17.193989    3.080158
C    18.549450   17.194158    3.091269
C    31.363740   17.194001    3.079956
C    19.971847   17.194217    3.079166
C    22.823033   17.194290    3.076095
C     7.869020   18.423917    3.079366
C    12.141128   18.429950    3.080010
C     5.026451   18.429666    3.081684
C     9.298771   18.423981    3.077627
C     3.596967   18.429737    3.080658
C    16.412398   18.424187    3.081230
C    33.494432   18.423974    3.079894
C    13.570443   18.429954    3.079938
C     0.754600   18.424048    3.080700
C    20.683060   18.430157    3.079090
C    17.841503   18.424156    3.080177
C    30.652498   18.429952    3.079056
C    29.223483   18.430071    3.077242
C    22.111806   18.430155    3.077656
C    10.010189   19.659881    3.079116
C     7.157698   19.659751    3.084315
C     5.734665   19.659650    3.095530
C    11.433103   19.659943    3.090487
C     1.465706   19.659859    3.081241
C    14.278593   19.660043    3.091141
C     2.888502   19.659639    3.091727
C    15.701222   19.660052    3.081559
C    32.783071   19.660051    3.079852
C    18.552833   19.660152    3.080414
C    31.360457   19.660072    3.091069
C    19.975157   19.660211    3.091663
C    22.819791   19.660280    3.089220
C    27.093046   19.660171    3.077655
C    28.515418   19.660142    3.089160
C    24.241886   19.660259    3.076575
